geometry optimzed in LAMMPS
_audit_creation_date              2020-12-01 
_audit_creation_method            'lammps2cif' 
_symmetry_space_group_name_H-M    'P1' 
_symmetry_Int_Tables_number       1 
_symmetry_cell_setting            triclinic 
loop_ 
_symmetry_equiv_pos_as_xyz 
  x,y,z 
_cell_length_a                    34.58468666 
_cell_length_b                    35.035551737677046 
_cell_length_c                    32.275000517379425 
_cell_angle_alpha                 90.28905535125962 
_cell_angle_beta                  89.87920583454252 
_cell_angle_gamma                 89.24571109681698 
loop_ 
_atom_site_label 
_atom_site_type_symbol 
_atom_site_fract_x 
_atom_site_fract_y 
_atom_site_fract_z 
_atom_site_charge 
O1          O  0.47911447  0.45516917  0.43974929    -0.78400
O2          O  0.03500894  0.05726072  0.43368842    -0.78400
O3          O  0.42063174  0.03530311  0.48830837    -0.78400
O4          O  0.08372226  0.46980317  0.48517870    -0.78300
O5          O  0.46192790  0.05108276  0.44144807    -0.78500
O6          O  0.03985556  0.45458107  0.44017952    -0.78400
O7          O  0.08114982  0.02784369  0.46626619    -0.78400
O8          O  0.42573412  0.45611365  0.47776720    -0.78400
C9          C  0.44339579  0.44803083  0.44380571     1.11300
C10         C  0.06990870  0.04833715  0.43660059     1.11200
C11         C  0.42773189  0.05179874  0.45468578     1.11300
C12         C  0.07482042  0.45461828  0.45105108     1.11200
O13         O  0.03399253  0.43034466  0.02773247    -0.78400
O14         O  0.46904618  0.06485664  0.03848562    -0.78500
O15         O  0.44409441  0.46961472  0.06595850    -0.78400
O16         O  0.09228212  0.03232925  0.03844192    -0.78400
O17         O  0.03382929  0.05133493  0.05896311    -0.78400
O18         O  0.45713683  0.42102321  0.02427805    -0.78400
O19         O  0.03445472  0.48350447  0.06322301    -0.78300
O20         O  0.41250956  0.03614520  0.03833831    -0.78400
Co21       Co  0.00244152  0.43717469  0.48196456     1.51500
Co22       Co  0.49699603  0.04866761  0.98373188     1.51700
Co23       Co  0.43808190  0.49449247  0.52382295     1.51600
Co24       Co  0.05176362  0.00418821  0.01198088     1.51500
O25         O  0.99478093  0.49160415  0.50393529    -1.40300
C26         C  0.04141871  0.44806167  0.06106538     1.11200
C27         C  0.43389450  0.06291572  0.05128186     1.11300
C28         C  0.44409984  0.43426934  0.05831415     1.11300
C29         C  0.07083664  0.05419907  0.06076640     1.11200
C30         C  0.12510701  0.12972418  0.38402843     0.88300
C31         C  0.16856830  0.12255842  0.39155162    -0.52000
C32         C  0.19177753  0.14507366  0.36787384     0.11200
C33         C  0.16966156  0.17257320  0.33921897     0.22100
C34         C  0.11910568  0.17296511  0.39162875    -0.52700
C35         C  0.14249978  0.19524346  0.36812871     0.11300
C36         C  0.11944544  0.12441850  0.33730010    -0.52200
C37         C  0.14272044  0.14686364  0.31404931     0.11800
H38         H  0.17981780  0.10173244  0.41338964     0.16400
H39         H  0.18859412  0.19076108  0.31990943     0.02100
H40         H  0.09807313  0.18487479  0.41333194     0.16700
H41         H  0.09865742  0.10497724  0.32385465     0.16500
C42         C  0.12301682  0.37870970  0.37863926     0.88300
C43         C  0.11768637  0.33603288  0.38842628    -0.52000
C44         C  0.14060322  0.31220669  0.36506819     0.11200
C45         C  0.16664799  0.33292256  0.33415050     0.22100
C46         C  0.16680422  0.38530416  0.38417524    -0.52700
C47         C  0.18933600  0.36117351  0.36091448     0.11300
C48         C  0.11605815  0.38183109  0.33191251    -0.52200
C49         C  0.13875689  0.35798214  0.30877855     0.11800
H50         H  0.09746266  0.32569822  0.41146821     0.16400
H51         H  0.18519094  0.31347811  0.31510115     0.02100
H52         H  0.17945863  0.40617790  0.40477738     0.16700
H53         H  0.09476646  0.40108809  0.31831156     0.16500
C54         C  0.11484986  0.37579723  0.11260686     0.88300
C55         C  0.15902830  0.38001943  0.10590168    -0.52000
C56         C  0.18121261  0.35566607  0.12940175     0.11200
C57         C  0.15742453  0.32919289  0.15687159     0.22100
C58         C  0.10721138  0.33323392  0.10438350    -0.52700
C59         C  0.12935579  0.30906447  0.12748856     0.11300
C60         C  0.10927169  0.38076270  0.15982889    -0.52200
C61         C  0.13179377  0.35629883  0.18257426     0.11800
H62         H  0.17147636  0.40082229  0.08511317     0.16400
H63         H  0.17532849  0.30933478  0.17586000     0.02100
H64         H  0.08597482  0.32312982  0.08226836     0.16700
H65         H  0.09003444  0.40158529  0.17427121     0.16500
C66         C  0.13680665  0.12516762  0.11699459     0.88300
C67         C  0.11970271  0.16507371  0.10699133    -0.52000
C68         C  0.13374489  0.19330690  0.13205052     0.11200
C69         C  0.16275079  0.17936442  0.16449405     0.22100
C70         C  0.18058488  0.13017402  0.11430763    -0.52700
C71         C  0.19374124  0.15845001  0.13925956     0.11300
C72         C  0.12865436  0.11905203  0.16340466    -0.52200
C73         C  0.14223666  0.14764982  0.18792337     0.11800
H74         H  0.09985762  0.17055004  0.08161996     0.16400
H75         H  0.17430801  0.20230189  0.18475997     0.02100
H76         H  0.19963016  0.11251615  0.09514810     0.16700
H77         H  0.11444209  0.09406214  0.17571026     0.16500
C78         C  0.37699190  0.12795170  0.38474487     0.88300
C79         C  0.38245817  0.17099141  0.39299992    -0.52000
C80         C  0.35920860  0.19406537  0.36945571     0.11200
C81         C  0.33257855  0.17215810  0.33988810     0.22100
C82         C  0.33327040  0.12149945  0.39149662    -0.52700
C83         C  0.31027610  0.14473809  0.36793594     0.11300
C84         C  0.38310775  0.12317219  0.33794084    -0.52200
C85         C  0.36001351  0.14617444  0.31464225     0.11800
H86         H  0.40320890  0.18212294  0.41503150     0.16400
H87         H  0.31373959  0.19085158  0.32058332     0.02100
H88         H  0.32108409  0.10095177  0.41264468     0.16700
H89         H  0.40416337  0.10343860  0.32439536     0.16500
C90         C  0.36805880  0.13041615  0.11616405     0.88300
C91         C  0.32389356  0.13309290  0.11471496    -0.52000
C92         C  0.30874867  0.15939321  0.14125260     0.11200
C93         C  0.33820810  0.18067276  0.16717375     0.22100
C94         C  0.38141135  0.17176781  0.10805113    -0.52700
C95         C  0.36529406  0.19788868  0.13506024     0.11300
C96         C  0.37758897  0.12267608  0.16200596    -0.52200
C97         C  0.36175842  0.14918555  0.18841225     0.11800
H98         H  0.30602747  0.11584862  0.09443787     0.16400
H99         H  0.32496251  0.20188863  0.18888345     0.02100
H100        H  0.39987543  0.17969982  0.08233420     0.16700
H101        H  0.39407802  0.09798665  0.17255321     0.15700
C102        C  0.36473867  0.38087629  0.11747893     0.88300
C103        C  0.37511427  0.33881667  0.10867765    -0.52000
C104        C  0.35560553  0.31385347  0.13295054     0.11200
C105        C  0.32674945  0.33304581  0.16339118     0.22100
C106        C  0.32057087  0.38349593  0.11206580    -0.52700
C107        C  0.30052100  0.35843579  0.13581740     0.11300
C108        C  0.37149429  0.38634324  0.16413993    -0.52200
C109        C  0.35172674  0.36132576  0.18822022     0.11800
H110        H  0.39647194  0.32965640  0.08584479     0.16400
H111        H  0.31073931  0.31257948  0.18300742     0.02100
H112        H  0.30639677  0.40320638  0.09092262     0.16700
H113        H  0.39051037  0.40784018  0.17690587     0.16500
C114        C  0.37250654  0.37784450  0.38696610     0.88300
C115        C  0.32842045  0.38324026  0.39138346    -0.52000
C116        C  0.30749443  0.35984223  0.36639137     0.11200
C117        C  0.33203160  0.33303085  0.33914818     0.22100
C118        C  0.37962822  0.33481417  0.39450895    -0.52700
C119        C  0.35849386  0.31149964  0.36940844     0.11300
C120        C  0.38023424  0.38329105  0.34000146    -0.52200
C121        C  0.35874723  0.35971987  0.31528115     0.11800
H122        H  0.31498575  0.40384681  0.41237594     0.16400
H123        H  0.31464701  0.31408503  0.31889970     0.02100
H124        H  0.39938489  0.32386850  0.41785563     0.16700
H125        H  0.39956950  0.40429794  0.32718411     0.16500
C126        C  0.35538123  0.36111045  0.23299037    -0.11500
C127        C  0.35835820  0.36115868  0.27037752    -0.13100
C128        C  0.36719783  0.23884432  0.13082072    -0.11500
C129        C  0.36286975  0.27312661  0.13099262    -0.13100
C130        C  0.36201768  0.14612957  0.27010505    -0.11500
C131        C  0.36337608  0.14645762  0.23282739    -0.13100
C132        C  0.36020890  0.23548136  0.37128858    -0.11500
C133        C  0.36015760  0.27008926  0.37133019    -0.13100
C134        C  0.26826241  0.16591507  0.14408972    -0.11500
C135        C  0.23382188  0.16573133  0.14318746    -0.13100
C136        C  0.12614199  0.26803606  0.12533749    -0.11500
C137        C  0.12657479  0.23359459  0.12630940    -0.13100
C138        C  0.22338379  0.35610727  0.13092169    -0.11500
C139        C  0.25844891  0.35631303  0.13384060    -0.13100
C140        C  0.13596267  0.35665867  0.26432019    -0.11500
C141        C  0.13313435  0.35666749  0.22713793    -0.13100
C142        C  0.26582165  0.36087402  0.36482046    -0.11500
C143        C  0.23099836  0.36125995  0.36284406    -0.13100
C144        C  0.14142398  0.14674354  0.26959427    -0.11500
C145        C  0.14075632  0.14673412  0.23235670    -0.13100
C146        C  0.26849498  0.14355752  0.36920049    -0.11500
C147        C  0.23355166  0.14347101  0.36937085    -0.13100
C148        C  0.14098195  0.23654157  0.36933536    -0.11500
C149        C  0.14025833  0.27104447  0.36852367    -0.13100
C150        C  0.09812051  0.06729192  0.40967214    -0.14700
C151        C  0.09803961  0.10578866  0.40949464    -0.29800
H152        H  0.12032913  0.05086801  0.39344840     0.14400
H153        H  0.07683610  0.12094806  0.42860890     0.14900
C154        C  0.06377364  0.42798188  0.09414798    -0.14700
C155        C  0.09036177  0.40067352  0.08364892    -0.29800
H156        H  0.05986875  0.43702896  0.12602859     0.14400
H157        H  0.09472445  0.39463942  0.05087043     0.14900
C158        C  0.38274124  0.10009876  0.08634854    -0.14700
C159        C  0.42024523  0.09165221  0.08166464    -0.29800
H160        H  0.36186930  0.08446768  0.06793672     0.14400
H161        H  0.44156740  0.10794306  0.09868628     0.14900
C162        C  0.08643130  0.08227189  0.08996773    -0.14700
C163        C  0.12322066  0.09322351  0.08938016    -0.29800
H164        H  0.06611436  0.09680896  0.11061739     0.14400
H165        H  0.14363832  0.07915230  0.06847493     0.14900
C166        C  0.39393402  0.40286823  0.41824523    -0.14700
C167        C  0.42319731  0.42696840  0.41003579    -0.29800
H168        H  0.38508103  0.39966213  0.45038037     0.14400
H169        H  0.43486365  0.42893061  0.37895956     0.14900
C170        C  0.40577677  0.10314300  0.40822814    -0.14700
C171        C  0.39705054  0.07381184  0.43328023    -0.29800
H172        H  0.43608104  0.10959699  0.40311171     0.14400
H173        H  0.36737233  0.06689533  0.44033223     0.14900
C174        C  0.09490497  0.40418535  0.40237255    -0.14700
C175        C  0.10449735  0.43380816  0.42683223    -0.29800
H176        H  0.06449137  0.39740762  0.39882162     0.14400
H177        H  0.13432964  0.44116312  0.43224317     0.14900
C178        C  0.42513380  0.40839040  0.08741465    -0.14700
C179        C  0.38638099  0.40880212  0.09077686    -0.29800
H180        H  0.44239683  0.38689343  0.10327404     0.14400
H181        H  0.36976226  0.42924369  0.07257963     0.14900
O182        O  0.45948054  0.44935989  0.94082776    -0.78400
O183        O  0.04198403  0.07756445  0.97387870    -0.78400
O184        O  0.44146797  0.03682936  0.96004222    -0.78400
O185        O  0.08598340  0.46775156  0.99231383    -0.78300
O186        O  0.47198075  0.09177270  0.96013398    -0.78500
O187        O  0.04664748  0.45073123  0.94260927    -0.78400
O188        O  0.06744376  0.02406976  0.95731468    -0.78400
O189        O  0.41237135  0.46685523  0.98353522    -0.78400
C190        C  0.42393373  0.45186354  0.94967928     1.11300
C191        C  0.06540094  0.05903187  0.95164623     1.11200
C192        C  0.44386829  0.07179191  0.94816821     1.11300
C193        C  0.08006885  0.45063430  0.95795344     1.11200
O194        O  0.04368872  0.42193840  0.52380770    -0.78400
O195        O  0.46501384  0.07901355  0.52813826    -0.78500
O196        O  0.45827857  0.45657313  0.56279218    -0.78400
O197        O  0.09230142  0.02750696  0.54726689    -0.78400
O198        O  0.04931047  0.07051658  0.52319800    -0.78400
O199        O  0.47441242  0.41544813  0.51576363    -0.78400
O200        O  0.04805917  0.47323687  0.56395410    -0.78300
O201        O  0.46028968  0.02540745  0.56382672    -0.78400
Co202      Co  0.00151246  0.44395249  0.97795285     1.51500
Co203      Co  0.50258199  0.06482993  0.48147397     1.51700
Co204      Co  0.43641720  0.50622066  0.02065988     1.51600
Co205      Co  0.05319272  0.00509109  0.51556219     1.51500
O206        O  0.00051852  0.50358292  0.98437300    -1.40300
C207        C  0.05429577  0.43791369  0.55760514     1.11200
C208        C  0.45527895  0.06114739  0.56109565     1.11300
C209        C  0.45813392  0.42286802  0.54986696     1.11300
C210        C  0.07944906  0.06172316  0.54545690     1.11200
C211        C  0.12449485  0.13558101  0.89123533     0.88300
C212        C  0.16777059  0.12747438  0.90056609    -0.52000
C213        C  0.19252064  0.14712826  0.87538690     0.11200
C214        C  0.17208583  0.17282774  0.84376670     0.22100
C215        C  0.12023294  0.17928031  0.89433382    -0.52700
C216        C  0.14505926  0.19855116  0.86959456     0.11300
C217        C  0.12001895  0.12657903  0.84465167    -0.52200
C218        C  0.14524442  0.14600442  0.82006786     0.11800
H219        H  0.17770608  0.10817132  0.92462507     0.16400
H220        H  0.19221977  0.18879135  0.82351449     0.02100
H221        H  0.09939556  0.19378379  0.91437772     0.16700
H222        H  0.09928690  0.10643829  0.83242109     0.16500
C223        C  0.12856763  0.38117685  0.87839535     0.88300
C224        C  0.12396998  0.33852062  0.88820429    -0.52000
C225        C  0.14665727  0.31509284  0.86429145     0.11200
C226        C  0.17174709  0.33604435  0.83283789     0.22100
C227        C  0.17201934  0.38877387  0.88254456    -0.52700
C228        C  0.19419972  0.36510210  0.85858482     0.11300
C229        C  0.12047946  0.38414789  0.83146812    -0.52200
C230        C  0.14312591  0.36030769  0.80788383     0.11800
H231        H  0.10420949  0.32787325  0.91152621     0.16400
H232        H  0.19032419  0.31685750  0.81349427     0.02100
H233        H  0.18447629  0.41116339  0.90137937     0.16700
H234        H  0.09863342  0.40301134  0.81826094     0.16500
C235        C  0.11675760  0.35968506  0.61108328     0.88300
C236        C  0.15839870  0.37229081  0.60173152    -0.52000
C237        C  0.18564699  0.35474432  0.62582303     0.11200
C238        C  0.16899009  0.32643848  0.65718932     0.22100
C239        C  0.11802528  0.31587354  0.60654221    -0.52700
C240        C  0.14528149  0.29857475  0.63088972     0.11300
C241        C  0.11109886  0.36684661  0.65776635    -0.52200
C242        C  0.13863320  0.34974596  0.68170139     0.11800
H243        H  0.16560494  0.39286050  0.57794867     0.16400
H244        H  0.19120737  0.31228743  0.67690305     0.02100
H245        H  0.09882151  0.29999339  0.58641455     0.16700
H246        H  0.08771422  0.38418637  0.67066114     0.16500
C247        C  0.14545735  0.11518868  0.62349397     0.88300
C248        C  0.13738613  0.15784764  0.61401042    -0.52000
C249        C  0.15792410  0.18221904  0.63834697     0.11200
C250        C  0.18458374  0.16224559  0.66970418     0.22100
C251        C  0.18939708  0.11045833  0.61922222    -0.52700
C252        C  0.20979886  0.13500945  0.64316626     0.11300
C253        C  0.13727853  0.11131481  0.67009774    -0.52200
C254        C  0.15753969  0.13603899  0.69418867     0.11800
H255        H  0.11761801  0.16849683  0.59067729     0.16400
H256        H  0.20130027  0.18224369  0.68936680     0.02100
H257        H  0.20318372  0.08977208  0.59856939     0.16700
H258        H  0.11685715  0.09115296  0.68281420     0.16500
C259        C  0.37902465  0.14321568  0.88950730     0.88300
C260        C  0.37941485  0.18694860  0.89165545    -0.52000
C261        C  0.35426556  0.20406684  0.86512174     0.11200
C262        C  0.33047570  0.17613068  0.83901059     0.22100
C263        C  0.33662949  0.13253261  0.89753406    -0.52700
C264        C  0.31111178  0.14988767  0.87112524     0.11300
C265        C  0.38663727  0.13362680  0.84376397    -0.52200
C266        C  0.36142579  0.15098132  0.81737197     0.11800
H267        H  0.39882604  0.20304626  0.91136742     0.16400
H268        H  0.30999836  0.19039830  0.81737267     0.02100
H269        H  0.32764466  0.11374404  0.92232930     0.16700
H270        H  0.41094032  0.11618140  0.83314276     0.16500
C271        C  0.39544422  0.13787127  0.62105000     0.88300
C272        C  0.35332092  0.12480743  0.61467485    -0.52000
C273        C  0.32720424  0.14438256  0.63890440     0.11200
C274        C  0.34498654  0.17476655  0.66673640     0.22100
C275        C  0.39403328  0.18102896  0.61333402    -0.52700
C276        C  0.36765186  0.20001824  0.63709550     0.11300
C277        C  0.40256379  0.13382998  0.66806036    -0.52200
C278        C  0.37560060  0.15298279  0.69168497     0.11800
H279        H  0.34505333  0.10252885  0.59305722     0.16400
H280        H  0.32346823  0.19065025  0.68610371     0.02100
H281        H  0.41181451  0.19532612  0.59051080     0.16700
H282        H  0.42569638  0.11654353  0.68123930     0.15700
C283        C  0.36964023  0.37757594  0.60012459     0.88300
C284        C  0.37497653  0.33414836  0.59607122    -0.52000
C285        C  0.35251732  0.31431489  0.62289526     0.11200
C286        C  0.32637922  0.33907404  0.65063382     0.22100
C287        C  0.32583514  0.38472786  0.59396608    -0.52700
C288        C  0.30333088  0.36423018  0.62050364     0.11300
C289        C  0.37692053  0.38651964  0.64606856    -0.52200
C290        C  0.35426684  0.36625368  0.67221876     0.11800
H291        H  0.39554766  0.32045909  0.57508933     0.16400
H292        H  0.30819580  0.32244674  0.67232836     0.02100
H293        H  0.31385782  0.40362855  0.57056702     0.16700
H294        H  0.39847754  0.40652183  0.65688277     0.16500
C295        C  0.37726147  0.38471891  0.86838594     0.88300
C296        C  0.33355698  0.39251676  0.87484934    -0.52000
C297        C  0.31091287  0.37003720  0.85082187     0.11200
C298        C  0.33286009  0.34225727  0.82258063     0.22100
C299        C  0.38224426  0.34154295  0.87605129    -0.52700
C300        C  0.35873510  0.31961330  0.85210111     0.11300
C301        C  0.38378009  0.38958740  0.82163286    -0.52200
C302        C  0.36038214  0.36741052  0.79796835     0.11800
H303        H  0.32085370  0.41276239  0.89652557     0.16400
H304        H  0.31382173  0.32420657  0.80310147     0.02100
H305        H  0.40187504  0.32955535  0.89893774     0.16700
H306        H  0.40463794  0.40906454  0.80850358     0.16500
C307        C  0.35786877  0.36838545  0.71642692    -0.11500
C308        C  0.36006840  0.36857716  0.75356562    -0.13100
C309        C  0.36055018  0.24014049  0.63261955    -0.11500
C310        C  0.35595902  0.27381729  0.62770358    -0.13100
C311        C  0.36736498  0.15001792  0.77310825    -0.11500
C312        C  0.37296620  0.15055326  0.73620196    -0.13100
C313        C  0.35375089  0.24478671  0.85972620    -0.11500
C314        C  0.35615264  0.27885734  0.85613963    -0.13100
C315        C  0.28611644  0.13814173  0.63897672    -0.11500
C316        C  0.25140683  0.13621786  0.64136856    -0.13100
C317        C  0.15044490  0.25756290  0.63276940    -0.11500
C318        C  0.15423474  0.22328887  0.63512394    -0.13100
C319        C  0.22671655  0.36135746  0.62164979    -0.11500
C320        C  0.26147220  0.36445007  0.61980911    -0.13100
C321        C  0.14038973  0.35752043  0.76336799    -0.11500
C322        C  0.13934949  0.35395205  0.72618668    -0.13100
C323        C  0.26972138  0.37020863  0.85386692    -0.11500
C324        C  0.23525600  0.36829846  0.85630635    -0.13100
C325        C  0.14795723  0.14111547  0.77565109    -0.11500
C326        C  0.15231840  0.13840104  0.73859345    -0.13100
C327        C  0.26945393  0.14589348  0.87494254    -0.11500
C328        C  0.23446705  0.14464997  0.87712291    -0.13100
C329        C  0.14575373  0.23966523  0.86825974    -0.11500
C330        C  0.14608963  0.27405189  0.86707063    -0.13100
C331        C  0.09184997  0.07756081  0.92152684    -0.14700
C332        C  0.09568708  0.11569753  0.91948462    -0.29800
H333        H  0.11015670  0.05940144  0.90216491     0.14400
H334        H  0.07736421  0.13346119  0.93928656     0.14900
C335        C  0.07862827  0.41674401  0.58756639    -0.14700
C336        C  0.08667056  0.37914046  0.58401707    -0.29800
H337        H  0.09257441  0.43315819  0.61182670     0.14400
H338        H  0.07219716  0.36235892  0.56042573     0.14900
C339        C  0.42468536  0.11828137  0.59276135    -0.14700
C340        C  0.43306093  0.08083892  0.59439188    -0.29800
H341        H  0.43801481  0.13522282  0.56862660     0.14400
H342        H  0.42038827  0.06367782  0.61872765     0.14900
C343        C  0.09849705  0.09248589  0.56859087    -0.14700
C344        C  0.12473087  0.08521512  0.59825046    -0.29800
H345        H  0.08936305  0.12133841  0.56152275     0.14400
H346        H  0.13207159  0.05567802  0.60527524     0.14900
C347        C  0.40533449  0.40788500  0.89378909    -0.14700
C348        C  0.39519888  0.43435872  0.92231809    -0.29800
H349        H  0.43581252  0.40110168  0.88916656     0.14400
H350        H  0.36528765  0.44145239  0.92870149     0.14900
C351        C  0.40829789  0.12553294  0.91823702    -0.14700
C352        C  0.41429215  0.08775437  0.92038387    -0.29800
H353        H  0.42577040  0.14436847  0.93718782     0.14400
H354        H  0.39615371  0.06845636  0.90282928     0.14900
C355        C  0.10132797  0.40595287  0.90375915    -0.14700
C356        C  0.11090173  0.42924093  0.93568872    -0.29800
H357        H  0.07100439  0.40271873  0.89584979     0.14400
H358        H  0.14039753  0.43152500  0.94650658     0.14900
C359        C  0.43414201  0.39499945  0.57122612    -0.14700
C360        C  0.39545354  0.40013894  0.57194955    -0.29800
H361        H  0.44797954  0.37221653  0.58867743     0.14400
H362        H  0.38240409  0.42264004  0.55331785     0.14900
O363        O  0.47480580  0.90983068  0.46731463    -0.78400
O364        O  0.02536696  0.59371853  0.47189758    -0.78400
O365        O  0.40999007  0.53174921  0.48759865    -0.78400
O366        O  0.08750152  0.96078725  0.49785292    -0.78300
O367        O  0.45457579  0.55150981  0.44366280    -0.78500
O368        O  0.05036186  0.94405224  0.44606946    -0.78400
O369        O  0.05773156  0.53944201  0.46197193    -0.78400
O370        O  0.44571518  0.96593231  0.45743639    -0.78400
C371        C  0.44954298  0.93005540  0.44869320     1.11300
C372        C  0.05236215  0.57515712  0.45368633     1.11200
C373        C  0.41943820  0.54760822  0.45388337     1.11300
C374        C  0.08321732  0.94434721  0.46304724     1.11200
O375        O  0.04159335  0.92345502  0.03278884    -0.78400
O376        O  0.46815917  0.58679704  0.01181345    -0.78500
O377        O  0.46377737  0.98211249  0.06787761    -0.78400
O378        O  0.08945002  0.53549585  0.04401520    -0.78400
O379        O  0.04538127  0.57707824  0.01937920    -0.78400
O380        O  0.46769938  0.92751108  0.03345360    -0.78400
O381        O  0.04240900  0.97786266  0.06570819    -0.78300
O382        O  0.45204830  0.54669149  0.05963907    -0.78400
Co383      Co  0.00332395  0.93866161  0.47973105     1.51500
Co384      Co  0.50735703  0.55105346  0.98711961     1.51700
Co385      Co  0.45604583  0.99551295  0.51236377     1.51600
Co386      Co  0.05084501  0.51104003  0.01273143     1.51500
O387        O  0.00318218  0.99824552  0.48659223    -1.40300
C388        C  0.05064953  0.94270301  0.06456615     1.11200
C389        C  0.45251778  0.58039877  0.04630452     1.11300
C390        C  0.45780309  0.94660857  0.06566869     1.11300
C391        C  0.07563779  0.56942162  0.04174077     1.11200
C392        C  0.11276672  0.64818024  0.39168597     0.88300
C393        C  0.15455052  0.63465378  0.40088525    -0.52000
C394        C  0.18156374  0.65112923  0.37600947     0.11200
C395        C  0.16481295  0.67967331  0.34478005     0.22100
C396        C  0.11399569  0.69189521  0.39556358    -0.52700
C397        C  0.14125473  0.70819035  0.37111912     0.11300
C398        C  0.10714298  0.64042234  0.34499153    -0.52200
C399        C  0.13461038  0.65693822  0.32063759     0.11800
H400        H  0.16194429  0.61388180  0.42454867     0.16400
H401        H  0.18698776  0.69315264  0.32481297     0.02100
H402        H  0.09512892  0.70849373  0.41593052     0.16700
H403        H  0.08391606  0.62328086  0.33252201     0.16500
C404        C  0.14092287  0.89082896  0.37879098     0.88300
C405        C  0.13308263  0.84877923  0.38909938    -0.52000
C406        C  0.15568613  0.82367383  0.36713320     0.11200
C407        C  0.18406355  0.84257155  0.33729357     0.22100
C408        C  0.18439042  0.89602732  0.38619594    -0.52700
C409        C  0.20676526  0.87043910  0.36461202     0.11300
C410        C  0.13589381  0.89338115  0.33158835    -0.52200
C411        C  0.15842439  0.86813009  0.31005920     0.11800
H412        H  0.11106547  0.83976230  0.41088802     0.16400
H413        H  0.20247042  0.82195740  0.31956091     0.02100
H414        H  0.19625645  0.91736638  0.40694562     0.16700
H415        H  0.11586979  0.91299005  0.31650496     0.16500
C416        C  0.12860153  0.87525942  0.11449732     0.88300
C417        C  0.17176436  0.88195611  0.10475054    -0.52000
C418        C  0.19661481  0.86021384  0.12799532     0.11200
C419        C  0.17627687  0.83346078  0.15832803     0.22100
C420        C  0.12332018  0.83199429  0.10893903    -0.52700
C421        C  0.14814632  0.81023287  0.13177966     0.11300
C422        C  0.12507500  0.88204995  0.16165660    -0.52200
C423        C  0.15023722  0.86012007  0.18420040     0.11800
H424        H  0.18165415  0.90259956  0.08223252     0.16400
H425        H  0.19644187  0.81570169  0.17715408     0.02100
H426        H  0.10158002  0.81967155  0.08882492     0.16700
H427        H  0.10512689  0.90213960  0.17623802     0.16500
C428        C  0.13433921  0.62613427  0.12375956     0.88300
C429        C  0.12663622  0.66878867  0.11321942    -0.52000
C430        C  0.14689894  0.69341559  0.13780041     0.11200
C431        C  0.17252509  0.67376202  0.17017432     0.22100
C432        C  0.17825360  0.62129623  0.12080333    -0.52700
C433        C  0.19806089  0.64629128  0.14460514     0.11300
C434        C  0.12495595  0.62310555  0.17021863    -0.52200
C435        C  0.14485838  0.64806275  0.19441208     0.11800
H436        H  0.10760475  0.67902322  0.08895811     0.16400
H437        H  0.18903632  0.69392387  0.18986184     0.02100
H438        H  0.19251750  0.60067131  0.10043654     0.16700
H439        H  0.10438219  0.60303012  0.18278742     0.16500
C440        C  0.36579245  0.61838786  0.38199649     0.88300
C441        C  0.37257507  0.66128999  0.38896003    -0.52000
C442        C  0.34838439  0.68418446  0.36657587     0.11200
C443        C  0.31948453  0.66266105  0.33978225     0.22100
C444        C  0.32248980  0.61289155  0.39230452    -0.52700
C445        C  0.29853050  0.63632281  0.37006569     0.11300
C446        C  0.36897840  0.61283548  0.33510109    -0.52200
C447        C  0.34502544  0.63616101  0.31327416     0.11800
H448        H  0.39545871  0.67245489  0.40841376     0.16400
H449        H  0.30002894  0.68164438  0.32150680     0.02100
H450        H  0.31141638  0.59353505  0.41541157     0.16700
H451        H  0.39016839  0.59396037  0.32039004     0.16500
C452        C  0.38125427  0.63312278  0.12044867     0.88300
C453        C  0.33766807  0.62892585  0.11195091    -0.52000
C454        C  0.31505996  0.65273219  0.13554146     0.11200
C455        C  0.33737556  0.67855397  0.16483465     0.22100
C456        C  0.38933446  0.67591900  0.11374464    -0.52700
C457        C  0.36609453  0.69929026  0.13709813     0.11300
C458        C  0.38515146  0.62713375  0.16732908    -0.52200
C459        C  0.36186945  0.65073095  0.19014796     0.11800
H460        H  0.32581499  0.60788572  0.09082427     0.16400
H461        H  0.31858998  0.69775772  0.18394563     0.02100
H462        H  0.41072693  0.68726464  0.09274563     0.16700
H463        H  0.40290813  0.60473983  0.18106754     0.15700
C464        C  0.38242361  0.88014778  0.11700690     0.88300
C465        C  0.38838632  0.83696822  0.11089636    -0.52000
C466        C  0.36468478  0.81545056  0.13463573     0.11200
C467        C  0.33699009  0.83853866  0.16240342     0.22100
C468        C  0.33894359  0.88713913  0.10883019    -0.52700
C469        C  0.31522233  0.86524592  0.13258791     0.11300
C470        C  0.38748690  0.88650477  0.16405308    -0.52200
C471        C  0.36373787  0.86447248  0.18748290     0.11800
H472        H  0.40966823  0.82452491  0.08981039     0.16400
H473        H  0.31787635  0.82057515  0.18176813     0.02100
H474        H  0.32804155  0.90692326  0.08570515     0.16700
H475        H  0.40877426  0.90494800  0.17804713     0.16500
C476        C  0.39169790  0.85867218  0.38412812     0.88300
C477        C  0.34983071  0.87180998  0.39332644    -0.52000
C478        C  0.32341300  0.85562070  0.36760863     0.11200
C479        C  0.34070398  0.82772515  0.33572361     0.22100
C480        C  0.39083404  0.81505701  0.38682105    -0.52700
C481        C  0.36402095  0.79902360  0.36171589     0.11300
C482        C  0.39806854  0.86737802  0.33797116    -0.52200
C483        C  0.37106778  0.85127023  0.31282661     0.11800
H484        H  0.34195028  0.89209368  0.41758722     0.16400
H485        H  0.31887877  0.81446638  0.31511072     0.02100
H486        H  0.40907831  0.79836609  0.40749478     0.16700
H487        H  0.42115516  0.88521657  0.32646071     0.16500
C488        C  0.36695401  0.86198992  0.23189250    -0.11500
C489        C  0.36958445  0.85764257  0.26880063    -0.13100
C490        C  0.36728321  0.74018525  0.13514407    -0.11500
C491        C  0.36645338  0.77448854  0.13448959    -0.13100
C492        C  0.34954807  0.64079131  0.26961836    -0.11500
C493        C  0.35575411  0.64556981  0.23351214    -0.13100
C494        C  0.35242299  0.72487075  0.36465220    -0.11500
C495        C  0.35694715  0.75875189  0.36227571    -0.13100
C496        C  0.27374929  0.65050519  0.13753781    -0.11500
C497        C  0.23930361  0.64886979  0.14174427    -0.13100
C498        C  0.14679846  0.76896040  0.13199836    -0.11500
C499        C  0.14580687  0.73450398  0.13339291    -0.13100
C500        C  0.23841718  0.86376256  0.12678509    -0.11500
C501        C  0.27337767  0.86541213  0.12857385    -0.13100
C502        C  0.15634145  0.86480217  0.26567618    -0.11500
C503        C  0.15327644  0.86263714  0.22858669    -0.13100
C504        C  0.28266701  0.86399901  0.36945462    -0.11500
C505        C  0.24814533  0.86846303  0.36820669    -0.13100
C506        C  0.13621686  0.65284109  0.27604697    -0.11500
C507        C  0.13975016  0.65038908  0.23885646    -0.13100
C508        C  0.25709552  0.63798077  0.37569035    -0.11500
C509        C  0.22246629  0.64243316  0.37778274    -0.13100
C510        C  0.14725580  0.74880409  0.37041312    -0.11500
C511        C  0.15148114  0.78288757  0.36961870    -0.13100
C512        C  0.07789886  0.59292168  0.42259872    -0.14700
C513        C  0.08236477  0.63081353  0.41961940    -0.29800
H514        H  0.09625766  0.57411729  0.40400229     0.14400
H515        H  0.06491851  0.64963924  0.43917086     0.14900
C516        C  0.07540017  0.92487342  0.09686591    -0.14700
C517        C  0.10143721  0.89736284  0.08599744    -0.29800
H518        H  0.07381430  0.93594306  0.12821288     0.14400
H519        H  0.10369256  0.88952610  0.05341926     0.14900
C520        C  0.40511692  0.60385875  0.09687475    -0.14700
C521        C  0.43282120  0.61152085  0.06900951    -0.29800
H522        H  0.39836651  0.57421606  0.10318787     0.14400
H523        H  0.43948648  0.64047456  0.06032858     0.14900
C524        C  0.09320695  0.60121261  0.06475651    -0.14700
C525        C  0.11499708  0.59526303  0.09846930    -0.29800
H526        H  0.08631269  0.62983698  0.05446078     0.14400
H527        H  0.12056772  0.56603828  0.10821346     0.14900
C528        C  0.42113548  0.87569749  0.41267406    -0.14700
C529        C  0.42463877  0.91348983  0.41682715    -0.29800
H530        H  0.43859556  0.85669871  0.43175452     0.14400
H531        H  0.40648770  0.93256948  0.39860363     0.14900
C532        C  0.39592598  0.59448708  0.40390191    -0.14700
C533        C  0.38849803  0.56521820  0.42910406    -0.29800
H534        H  0.42583091  0.60244829  0.39862770     0.14400
H535        H  0.35915675  0.55634053  0.43508093     0.14900
C536        C  0.11460019  0.91838039  0.40141757    -0.14700
C537        C  0.11546309  0.92387162  0.44261171    -0.29800
H538        H  0.09233700  0.93288016  0.38340833     0.14400
H539        H  0.13838334  0.91134783  0.46127770     0.14900
C540        C  0.43465498  0.92819945  0.09822368    -0.14700
C541        C  0.40831244  0.90184881  0.08764701    -0.29800
H542        H  0.43723505  0.93855799  0.12973024     0.14400
H543        H  0.40497018  0.89475417  0.05500292     0.14900
O544        O  0.46557629  0.94942892  0.94642039    -0.78400
O545        O  0.03172776  0.56324412  0.93013469    -0.78400
O546        O  0.42217154  0.54277316  0.97462618    -0.78400
O547        O  0.08667247  0.96237905  0.99037535    -0.78300
O548        O  0.47551144  0.54644541  0.93657173    -0.78500
O549        O  0.04381320  0.94025657  0.94633656    -0.78400
O550        O  0.07761942  0.53375807  0.96321713    -0.78400
O551        O  0.42267602  0.96927446  0.99151755    -0.78400
C552        C  0.43076314  0.95143525  0.95820476     1.11300
C553        C  0.06661846  0.55347263  0.93295322     1.11200
C554        C  0.43926788  0.55135973  0.94090759     1.11300
C555        C  0.07859513  0.94305290  0.95816512     1.11200
O556        O  0.03317242  0.92486619  0.53074664    -0.78400
O557        O  0.45165549  0.58077777  0.52681858    -0.78500
O558        O  0.41012069  0.97312062  0.53225962    -0.78400
O559        O  0.09460292  0.53060117  0.53570708    -0.78400
O560        O  0.03808839  0.55916501  0.54596284    -0.78400
O561        O  0.46571610  0.94345626  0.54262881    -0.78400
O562        O  0.03513845  0.97835656  0.56569379    -0.78300
O563        O  0.44441982  0.53187645  0.56861400    -0.78400
Co564      Co  0.00267480  0.93508608  0.98810450     1.51500
Co565      Co  0.49292014  0.56246355  0.48694643     1.51700
Co566      Co  0.45678210  0.01024453  0.01557969     1.51600
Co567      Co  0.04923641  0.50690104  0.51530858     1.51500
O568        O  0.99991739  0.99479826  0.99113134    -1.40300
C569        C  0.04040197  0.94262673  0.56407082     1.11200
C570        C  0.44134608  0.56708599  0.56146352     1.11300
C571        C  0.42931240  0.94757621  0.55076237     1.11300
C572        C  0.07456121  0.55622461  0.55374578     1.11200
C573        C  0.13169645  0.62802159  0.87993949     0.88300
C574        C  0.17464864  0.61937897  0.89040090    -0.52000
C575        C  0.20011635  0.64025364  0.86719668     0.11200
C576        C  0.18054484  0.66725528  0.83612195     0.22100
C577        C  0.12746623  0.67157351  0.88532577    -0.52700
C578        C  0.15295940  0.69188620  0.86249173     0.11300
C579        C  0.12838423  0.62117180  0.83311960    -0.52200
C580        C  0.15401447  0.64158154  0.81040337     0.11800
H581        H  0.18384675  0.59930108  0.91405031     0.16400
H582        H  0.20114635  0.68406882  0.81729266     0.02100
H583        H  0.10608510  0.68524803  0.90538764     0.16700
H584        H  0.10748420  0.60214876  0.81919869     0.16500
C585        C  0.12975410  0.87288554  0.88212477     0.88300
C586        C  0.12756952  0.82957092  0.88953503    -0.52000
C587        C  0.15121461  0.80854475  0.86405687     0.11200
C588        C  0.17482427  0.83234121  0.83369038     0.22100
C589        C  0.17295545  0.88225270  0.88663623    -0.52700
C590        C  0.19627151  0.86084281  0.86143386     0.11300
C591        C  0.12097766  0.87773457  0.83590821    -0.52200
C592        C  0.14428254  0.85634266  0.81075308     0.11800
H593        H  0.10857807  0.81676309  0.91226560     0.16400
H594        H  0.19394526  0.81501316  0.81297547     0.02100
H595        H  0.18482980  0.90284854  0.90808559     0.16700
H596        H  0.09733374  0.89533994  0.82420673     0.16500
C597        C  0.10206488  0.86392967  0.61792923     0.88300
C598        C  0.14395481  0.87636137  0.60869051    -0.52000
C599        C  0.17123590  0.85624281  0.63057488     0.11200
C600        C  0.15455624  0.82592122  0.65916837     0.22100
C601        C  0.10228372  0.82054305  0.60941202    -0.52700
C602        C  0.12970104  0.80087117  0.63109955     0.11300
C603        C  0.09782397  0.86771714  0.66520925    -0.52200
C604        C  0.12573100  0.84808017  0.68644739     0.11800
H605        H  0.15117246  0.89909378  0.58738597     0.16400
H606        H  0.17688443  0.80980250  0.67692803     0.02100
H607        H  0.08248013  0.80661530  0.58825008     0.16700
H608        H  0.07589769  0.88537994  0.68032548     0.16500
C609        C  0.14779915  0.61788655  0.61323595     0.88300
C610        C  0.13321041  0.65888950  0.60471536    -0.52000
C611        C  0.15000833  0.68567921  0.62944393     0.11200
C612        C  0.17977381  0.66939866  0.65997991     0.22100
C613        C  0.19191628  0.61974753  0.60842413    -0.52700
C614        C  0.20839715  0.64668218  0.63293169     0.11300
C615        C  0.14108035  0.61176116  0.65986926    -0.52200
C616        C  0.15791880  0.63888205  0.68408703     0.11800
H617        H  0.11166487  0.66595964  0.58145120     0.16400
H618        H  0.19353994  0.69128992  0.67996367     0.02100
H619        H  0.20866614  0.60126405  0.58782523     0.16700
H620        H  0.12485452  0.58813454  0.67246571     0.16500
C621        C  0.38652358  0.63389444  0.88505766     0.88300
C622        C  0.38926415  0.67725436  0.89318436    -0.52000
C623        C  0.36433414  0.69871018  0.86988685     0.11200
C624        C  0.33856668  0.67503358  0.84111428     0.22100
C625        C  0.34371792  0.62449337  0.89254270    -0.52700
C626        C  0.31860893  0.64593463  0.86950839     0.11300
C627        C  0.39263409  0.62965156  0.83805656    -0.52200
C628        C  0.36759213  0.65137789  0.81523829     0.11800
H629        H  0.41004714  0.68987915  0.91422349     0.16400
H630        H  0.31828256  0.69255124  0.82219777     0.02100
H631        H  0.33422589  0.60277310  0.91405894     0.16700
H632        H  0.41548016  0.61218897  0.82423917     0.16500
C633        C  0.39238322  0.65166661  0.61822065     0.88300
C634        C  0.34974811  0.64124515  0.61166969    -0.52000
C635        C  0.32493329  0.66091968  0.63688097     0.11200
C636        C  0.34441746  0.68903134  0.66630650     0.22100
C637        C  0.39337680  0.69516068  0.61232777    -0.52700
C638        C  0.36806440  0.71451230  0.63751991     0.11300
C639        C  0.39985064  0.64542057  0.66470940    -0.52200
C640        C  0.37435656  0.66468780  0.68968288     0.11800
H641        H  0.34011033  0.62047121  0.58894867     0.16400
H642        H  0.32379836  0.70492660  0.68672646     0.02100
H643        H  0.41134874  0.70919218  0.58950735     0.16700
H644        H  0.42220256  0.62640810  0.67664749     0.15700
C645        C  0.35148669  0.89536979  0.61375511     0.88300
C646        C  0.36267423  0.85333026  0.60583457    -0.52000
C647        C  0.34402218  0.82861592  0.63116895     0.11200
C648        C  0.31536058  0.84771173  0.66139949     0.22100
C649        C  0.30731247  0.89697829  0.60902510    -0.52700
C650        C  0.28841660  0.87193531  0.63369515     0.11300
C651        C  0.35895568  0.90186179  0.66020175    -0.52200
C652        C  0.34026572  0.87660308  0.68505008     0.11800
H653        H  0.38427832  0.84412082  0.58329318     0.16400
H654        H  0.30010281  0.82723482  0.68170325     0.02100
H655        H  0.29232875  0.91562623  0.58736500     0.16700
H656        H  0.37853390  0.92326341  0.67211446     0.16500
C657        C  0.38027636  0.88199147  0.87958139     0.88300
C658        C  0.33651635  0.88684846  0.88883142    -0.52000
C659        C  0.31398774  0.86342910  0.86528610     0.11200
C660        C  0.33634880  0.83746740  0.83528205     0.22100
C661        C  0.38855289  0.83901090  0.88558931    -0.52700
C662        C  0.36537934  0.81582709  0.86266334     0.11300
C663        C  0.38349132  0.88832227  0.83247368    -0.52200
C664        C  0.36023506  0.86524678  0.80951532     0.11800
H665        H  0.32403353  0.90713708  0.91066045     0.16400
H666        H  0.31752909  0.81864982  0.81643131     0.02100
H667        H  0.41022590  0.82797003  0.90686216     0.16700
H668        H  0.40131265  0.91021385  0.81871283     0.16500
C669        C  0.34765054  0.87385165  0.72901134    -0.11500
C670        C  0.35435331  0.87008139  0.76550052    -0.13100
C671        C  0.36098777  0.75494649  0.63439316    -0.11500
C672        C  0.35325475  0.78847774  0.63216880    -0.13100
C673        C  0.37077603  0.65507517  0.77089232    -0.11500
C674        C  0.37315930  0.65957254  0.73396081    -0.13100
C675        C  0.36522619  0.74008919  0.86882153    -0.11500
C676        C  0.36597754  0.77455345  0.86622487    -0.13100
C677        C  0.28382070  0.65625285  0.63533446    -0.11500
C678        C  0.24939168  0.65227100  0.63413948    -0.13100
C679        C  0.13493653  0.75998303  0.62813178    -0.11500
C680        C  0.14083461  0.72594806  0.62748214    -0.13100
C681        C  0.21229759  0.86353716  0.62950089    -0.11500
C682        C  0.24691318  0.86753152  0.63160623    -0.13100
C683        C  0.13747908  0.85359539  0.76694985    -0.11500
C684        C  0.13085745  0.85107189  0.73047827    -0.13100
C685        C  0.27241225  0.86423339  0.86581656    -0.11500
C686        C  0.23771799  0.86307553  0.86348879    -0.13100
C687        C  0.15527941  0.63974302  0.76589301    -0.11500
C688        C  0.15613569  0.63871566  0.72861541    -0.13100
C689        C  0.27691893  0.64131982  0.87146708    -0.11500
C690        C  0.24195283  0.63890087  0.87142636    -0.13100
C691        C  0.15339796  0.73301522  0.86329696    -0.11500
C692        C  0.15264129  0.76741893  0.86420384    -0.13100
C693        C  0.09596988  0.56934937  0.90474399    -0.14700
C694        C  0.10133673  0.60733381  0.90502806    -0.29800
H695        H  0.11586825  0.55047902  0.88819627     0.14400
H696        H  0.08196939  0.62474423  0.92413712     0.14900
C697        C  0.06237930  0.92235544  0.59705691    -0.14700
C698        C  0.07140551  0.88485868  0.59285035    -0.29800
H699        H  0.07535192  0.93895382  0.62176754     0.14400
H700        H  0.05754036  0.86864356  0.56836285     0.14900
C701        C  0.41909860  0.62937232  0.58979822    -0.14700
C702        C  0.42172714  0.59121314  0.59262019    -0.29800
H703        H  0.43454861  0.64423197  0.56550578     0.14400
H704        H  0.40673193  0.57684697  0.61761185     0.14900
C705        C  0.09189577  0.58258849  0.58392740    -0.14700
C706        C  0.13019036  0.58779654  0.58576573    -0.29800
H707        H  0.07271307  0.60027323  0.60286205     0.14400
H708        H  0.14919733  0.57083040  0.56586733     0.14900
C709        C  0.40875066  0.90652901  0.90366352    -0.14700
C710        C  0.40006339  0.93137893  0.93465346    -0.29800
H711        H  0.43896376  0.90230611  0.89527913     0.14400
H712        H  0.37048357  0.93573774  0.94478373     0.14900
C713        C  0.41448730  0.61049946  0.91104702    -0.14700
C714        C  0.41691065  0.57212415  0.90920604    -0.29800
H715        H  0.43225951  0.62544483  0.93349995     0.14400
H716        H  0.39864808  0.55624426  0.88811748     0.14900
C717        C  0.10095211  0.89507615  0.90815543    -0.14700
C718        C  0.10949126  0.92297017  0.93527819    -0.29800
H719        H  0.07084111  0.88760387  0.90352568     0.14400
H720        H  0.13896667  0.93072595  0.94204688     0.14900
C721        C  0.41059440  0.92345210  0.58197676    -0.14700
C722        C  0.37187222  0.92276649  0.58557530    -0.29800
H723        H  0.42846435  0.90433624  0.60044982     0.14400
H724        H  0.35422954  0.94128918  0.56614343     0.14900
O725        O  0.96055078  0.44624741  0.44181849    -0.78400
O726        O  0.54045119  0.05549945  0.43739657    -0.78400
O727        O  0.91826771  0.03608283  0.49236107    -0.78400
O728        O  0.56399120  0.46806922  0.46303288    -0.78300
O729        O  0.95936054  0.05456984  0.44529955    -0.78500
O730        O  0.53886139  0.41048188  0.46883951    -0.78400
O731        O  0.58871047  0.04039063  0.47989927    -0.78400
O732        O  0.91650177  0.45720276  0.49050643    -0.78400
C733        C  0.92581361  0.44546781  0.45437751     1.11300
C734        C  0.57615815  0.05302861  0.44551863     1.11200
C735        C  0.92552985  0.05479949  0.45956689     1.11300
C736        C  0.56391573  0.43229299  0.45332374     1.11200
O737        O  0.53461748  0.42805427  0.03102549    -0.78400
O738        O  0.95151306  0.05875441  0.04850243    -0.78500
O739        O  0.90852786  0.47104170  0.03702590    -0.78400
O740        O  0.54998319  0.04623393  0.05617346    -0.78400
O741        O  0.53606422  0.08482157  0.00610917    -0.78400
O742        O  0.95375101  0.42906055  0.01484965    -0.78400
O743        O  0.54037246  0.48227036  0.06586780    -0.78300
O744        O  0.90185163  0.01981276  0.03821547    -0.78400
Co745      Co  0.51133577  0.45266640  0.49042367     1.51500
Co746      Co  0.99869561  0.05656776  0.00878605     1.51700
Co747      Co  0.94170320  0.49436748  0.52961554     1.51600
Co748      Co  0.56656463  0.00387239  0.02008094     1.51500
O749        O  0.49211945  0.50602875  0.50338169    -1.40300
C750        C  0.54468123  0.44643513  0.06348545     1.11200
C751        C  0.91629758  0.04868451  0.05580841     1.11300
C752        C  0.92211038  0.43706312  0.03528145     1.11300
C753        C  0.55120980  0.07912460  0.04094309     1.11200
C754        C  0.62766577  0.12673586  0.38004979     0.88300
C755        C  0.67063568  0.12131864  0.39112820    -0.52000
C756        C  0.69461112  0.13992857  0.36472992     0.11200
C757        C  0.67417847  0.16205331  0.33037227     0.22100
C758        C  0.62129253  0.17023855  0.37937821    -0.52700
C759        C  0.64597786  0.18836984  0.35340599     0.11300
C760        C  0.62409935  0.11403356  0.33470134    -0.52200
C761        C  0.64849543  0.13281063  0.30902311     0.11800
H762        H  0.68098200  0.10496841  0.41747748     0.16400
H763        H  0.69405033  0.17725495  0.30911188     0.02100
H764        H  0.60012681  0.18537632  0.39844602     0.16700
H765        H  0.60319685  0.09343202  0.32376422     0.16500
C766        C  0.62460971  0.36307102  0.38774039     0.88300
C767        C  0.62324271  0.31943392  0.38673150    -0.52000
C768        C  0.64725269  0.30347524  0.35805527     0.11200
C769        C  0.67074443  0.33210808  0.33310840     0.22100
C770        C  0.66739597  0.37247434  0.39484425    -0.52700
C771        C  0.69141741  0.35606106  0.36607126     0.11300
C772        C  0.61577754  0.37538556  0.34319221    -0.52200
C773        C  0.64005221  0.35910759  0.31484297     0.11800
H774        H  0.60464531  0.30258967  0.40650233     0.16400
H775        H  0.69030935  0.31866427  0.30969076     0.02100
H776        H  0.67767849  0.38976922  0.42047508     0.16700
H777        H  0.59175442  0.39406682  0.33475650     0.16500
C778        C  0.60288639  0.36915641  0.12084084     0.88300
C779        C  0.64533320  0.37792494  0.10973177    -0.52000
C780        C  0.67147954  0.35839959  0.13359821     0.11200
C781        C  0.65321401  0.33246379  0.16591419     0.22100
C782        C  0.60005035  0.32561084  0.11743549    -0.52700
C783        C  0.62630440  0.30671028  0.14117067     0.11300
C784        C  0.59924957  0.37791798  0.16741464    -0.52200
C785        C  0.62606626  0.35887405  0.19055585     0.11800
H786        H  0.65374175  0.39742559  0.08536200     0.16400
H787        H  0.67457991  0.31666612  0.18526938     0.02100
H788        H  0.57921588  0.31099466  0.09804173     0.16700
H789        H  0.57791766  0.39747736  0.18070393     0.16500
C790        C  0.62455572  0.12692550  0.11328532     0.88300
C791        C  0.61348487  0.16969755  0.11227051    -0.52000
C792        C  0.63537727  0.19121168  0.13818422     0.11200
C793        C  0.66586516  0.16885927  0.16259804     0.22100
C794        C  0.66813369  0.12546745  0.10352347    -0.52700
C795        C  0.68944523  0.14756342  0.12955730     0.11300
C796        C  0.62154137  0.11570674  0.15899893    -0.52200
C797        C  0.64329569  0.13758831  0.18441572     0.11800
H798        H  0.59113512  0.18241956  0.09312557     0.16400
H799        H  0.68347757  0.18672540  0.18377803     0.02100
H800        H  0.68092348  0.10807046  0.07900223     0.16700
H801        H  0.60409300  0.09231375  0.17019450     0.16500
C802        C  0.87754649  0.12766972  0.38323708     0.88300
C803        C  0.88480274  0.17066778  0.39001824    -0.52000
C804        C  0.86132782  0.19386991  0.36684771     0.11200
C805        C  0.83290703  0.17233330  0.33923202     0.22100
C806        C  0.83419957  0.12262187  0.39175976    -0.52700
C807        C  0.81129579  0.14593612  0.36874269     0.11300
C808        C  0.88177907  0.12184886  0.33593999    -0.52200
C809        C  0.85837361  0.14540132  0.31314790     0.11800
H810        H  0.90673182  0.18162382  0.41079841     0.16400
H811        H  0.81367491  0.19119890  0.32054523     0.02100
H812        H  0.82190053  0.10198955  0.41269363     0.16700
H813        H  0.90167385  0.10129940  0.32187552     0.16500
C814        C  0.87305010  0.13465795  0.11529063     0.88300
C815        C  0.82969357  0.12940956  0.10743462    -0.52000
C816        C  0.80680911  0.15161139  0.13219532     0.11200
C817        C  0.82886831  0.17739870  0.16229385     0.22100
C818        C  0.87943979  0.17780095  0.10961677    -0.52700
C819        C  0.85591189  0.20007128  0.13403981     0.11300
C820        C  0.87870957  0.12754914  0.16178133    -0.52200
C821        C  0.85564903  0.14996715  0.18634221     0.11800
H822        H  0.81813749  0.10998165  0.08435182     0.16400
H823        H  0.80983180  0.19553282  0.18227365     0.02100
H824        H  0.89948441  0.18958622  0.08724938     0.16700
H825        H  0.89911525  0.10669238  0.17408544     0.15700
C826        C  0.85381602  0.38299311  0.11057641     0.88300
C827        C  0.86337723  0.34024285  0.10266775    -0.52000
C828        C  0.84296425  0.31623437  0.12747851     0.11200
C829        C  0.81479602  0.33656251  0.15731469     0.22100
C830        C  0.80984838  0.38640889  0.10520318    -0.52700
C831        C  0.78950507  0.36224575  0.12955128     0.11300
C832        C  0.86067624  0.38863294  0.15727450    -0.52200
C833        C  0.84045658  0.36416902  0.18154222     0.11800
H834        H  0.88456330  0.32943881  0.08065640     0.16400
H835        H  0.79818877  0.31686300  0.17731407     0.02100
H836        H  0.79600165  0.40651930  0.08423119     0.16700
H837        H  0.88044517  0.40953078  0.16991300     0.16500
C838        C  0.87580361  0.37724208  0.37593721     0.88300
C839        C  0.83230221  0.38243920  0.38624504    -0.52000
C840        C  0.80916809  0.35848010  0.36434887     0.11200
C841        C  0.83080126  0.33161236  0.33447917     0.22100
C842        C  0.88427882  0.33452624  0.38319799    -0.52700
C843        C  0.86068228  0.31075963  0.36161532     0.11300
C844        C  0.87809166  0.38221227  0.32870096    -0.52200
C845        C  0.85438554  0.35848560  0.30719534     0.11800
H846        H  0.82015533  0.40319564  0.40775091     0.16400
H847        H  0.81156654  0.31230394  0.31676600     0.02100
H848        H  0.90679137  0.32408261  0.40382667     0.16700
H849        H  0.89620209  0.40318784  0.31372324     0.16500
C850        C  0.84520109  0.36252264  0.22589006    -0.11500
C851        C  0.84974299  0.36053891  0.26286349    -0.13100
C852        C  0.85353371  0.24115925  0.13049130    -0.11500
C853        C  0.84929845  0.27536310  0.12806029    -0.13100
C854        C  0.85780172  0.14580051  0.26836794    -0.11500
C855        C  0.85658464  0.14766768  0.23102625    -0.13100
C856        C  0.86330721  0.23512261  0.36698453    -0.11500
C857        C  0.86291098  0.26959088  0.36497329    -0.13100
C858        C  0.76544759  0.15084183  0.12965209    -0.11500
C859        C  0.73080991  0.14931069  0.12814762    -0.13100
C860        C  0.62886862  0.26596169  0.14196057    -0.11500
C861        C  0.63132470  0.23181275  0.14099496    -0.13100
C862        C  0.71289595  0.36132382  0.12967324    -0.11500
C863        C  0.74778031  0.36172750  0.12930519    -0.13100
C864        C  0.63420913  0.36310326  0.27123685    -0.11500
C865        C  0.62935235  0.36300445  0.23448145    -0.13100
C866        C  0.76763982  0.35951483  0.36728184    -0.11500
C867        C  0.73283667  0.35902885  0.36760076    -0.13100
C868        C  0.64677574  0.12967548  0.26500890    -0.11500
C869        C  0.64511963  0.13169075  0.22806241    -0.13100
C870        C  0.77011206  0.14354792  0.37003842    -0.11500
C871        C  0.73563240  0.14088007  0.36934456    -0.13100
C872        C  0.64770068  0.22898418  0.35071809    -0.11500
C873        C  0.64890912  0.26311559  0.35183876    -0.13100
C874        C  0.60341363  0.06968725  0.41659001    -0.14700
C875        C  0.60017943  0.10696388  0.40831734    -0.29800
H876        H  0.62756862  0.05269643  0.40483823     0.14400
H877        H  0.57712699  0.12371722  0.42288326     0.14900
C878        C  0.56705699  0.42682623  0.09585464    -0.14700
C879        C  0.57352512  0.38907031  0.09398860    -0.29800
H880        H  0.58148422  0.44394532  0.11918340     0.14400
H881        H  0.55825701  0.37209691  0.07113046     0.14900
C882        C  0.89831569  0.10963013  0.08816521    -0.14700
C883        C  0.89282035  0.07175379  0.08473315    -0.29800
H884        H  0.92059425  0.12308233  0.06968015     0.14400
H885        H  0.86912709  0.05835556  0.10105621     0.14900
C886        C  0.57228757  0.10932716  0.06216412    -0.14700
C887        C  0.60188310  0.09980103  0.08702931    -0.29800
H888        H  0.56426647  0.13866458  0.05589387     0.14400
H889        H  0.61006590  0.06984613  0.09001688     0.14900
C890        C  0.90459246  0.40224007  0.39851949    -0.14700
C891        C  0.89571651  0.42731953  0.42895560    -0.29800
H892        H  0.93483775  0.39753895  0.39051786     0.14400
H893        H  0.86615837  0.43184593  0.43894573     0.14900
C894        C  0.90518771  0.10234736  0.40761465    -0.14700
C895        C  0.89554334  0.07797162  0.43842082    -0.29800
H896        H  0.93545421  0.10493602  0.39910401     0.14400
H897        H  0.86615556  0.07547362  0.44939566     0.14900
C898        C  0.59713782  0.37964807  0.41890072    -0.14700
C899        C  0.59224315  0.41730554  0.42360392    -0.29800
H900        H  0.58008940  0.36018663  0.43741068     0.14400
H901        H  0.60967074  0.43705826  0.40593250     0.14900
C902        C  0.90235853  0.40584973  0.05700961    -0.14700
C903        C  0.87452146  0.41286295  0.08529706    -0.29800
H904        H  0.91247292  0.37707562  0.05063684     0.14400
H905        H  0.86612725  0.44232872  0.09168017     0.14900
O906        O  0.97132210  0.44533790  0.92681036    -0.78400
O907        O  0.52851797  0.04089864  0.93324123    -0.78400
O908        O  0.92881212  0.02457485  0.96009309    -0.78400
O909        O  0.58057529  0.46857723  0.99032133    -0.78300
O910        O  0.96614557  0.07353192  0.96218374    -0.78500
O911        O  0.53850822  0.45164989  0.94417916    -0.78400
O912        O  0.58141921  0.03822677  0.97193704    -0.78400
O913        O  0.92398340  0.47510668  0.95742756    -0.78400
C914        C  0.93646197  0.45513011  0.92781187     1.11300
C915        C  0.56437353  0.04706508  0.93802609     1.11200
C916        C  0.93797632  0.05660152  0.94665145     1.11300
C917        C  0.57289010  0.45119397  0.95705153     1.11200
O918        O  0.54371152  0.44189181  0.54469852    -0.78400
O919        O  0.96957626  0.06964738  0.53261826    -0.78500
O920        O  0.95709598  0.45443356  0.56909898    -0.78400
O921        O  0.55554309  0.04384744  0.56239605    -0.78400
O922        O  0.54250567  0.08893221  0.51746617    -0.78400
O923        O  0.96627834  0.41077318  0.52082703    -0.78400
O924        O  0.59496834  0.47853123  0.53943368    -0.78300
O925        O  0.96628256  0.01461004  0.56380128    -0.78400
Co926      Co  0.49732901  0.44134466  0.98514274     1.51500
Co927      Co  0.00314243  0.05797513  0.48328906     1.51700
Co928      Co  0.94898310  0.49528865  0.00920718     1.51600
Co929      Co  0.56555154  0.00411119  0.52065133     1.51500
O930        O  0.49181077  0.49750355  0.00125887    -1.40300
C931        C  0.57879939  0.45003138  0.55533473     1.11200
C932        C  0.96082863  0.05025836  0.56423081     1.11300
C933        C  0.95592720  0.42019376  0.55716325     1.11300
C934        C  0.55649627  0.07830642  0.55172961     1.11200
C935        C  0.63307202  0.12359193  0.89030864     0.88300
C936        C  0.67689289  0.11951847  0.89770589    -0.52000
C937        C  0.69856792  0.14370952  0.87461513     0.11200
C938        C  0.67493893  0.16998251  0.84623443     0.22100
C939        C  0.62404408  0.16645878  0.89822237    -0.52700
C940        C  0.64602318  0.19064819  0.87496478     0.11300
C941        C  0.62843492  0.11833669  0.84306892    -0.52200
C942        C  0.65047966  0.14262850  0.82042800     0.11800
H943        H  0.68963048  0.09891734  0.91889384     0.16400
H944        H  0.69287250  0.18946418  0.82732220     0.02100
H945        H  0.60238994  0.17659456  0.92022569     0.16700
H946        H  0.61049960  0.09711746  0.82833202     0.16500
C947        C  0.62435570  0.37474828  0.88623831     0.88300
C948        C  0.61912703  0.33187288  0.89519450    -0.52000
C949        C  0.64295989  0.30832503  0.87249187     0.11200
C950        C  0.66994479  0.32978131  0.84281199     0.22100
C951        C  0.66792615  0.38181075  0.89332294    -0.52700
C952        C  0.69154507  0.35829835  0.87046541     0.11300
C953        C  0.61904167  0.37829943  0.83919082    -0.52200
C954        C  0.64285944  0.35499572  0.81658605     0.11800
H955        H  0.59813587  0.32117440  0.91720966     0.16400
H956        H  0.68931361  0.31081950  0.82414059     0.02100
H957        H  0.67963105  0.40355008  0.91350552     0.16700
H958        H  0.59841258  0.39787860  0.82498258     0.16500
C959        C  0.62288386  0.36713931  0.61898514     0.88300
C960        C  0.66598721  0.37313510  0.60902904    -0.52000
C961        C  0.69033535  0.35245746  0.63357423     0.11200
C962        C  0.66997261  0.32757792  0.66550595     0.22100
C963        C  0.61760750  0.32364170  0.61540814    -0.52700
C964        C  0.64256124  0.30325499  0.63974721     0.11300
C965        C  0.61869615  0.37592069  0.66562430    -0.52200
C966        C  0.64334375  0.35492020  0.68977244     0.11800
H967        H  0.67622627  0.39149747  0.58441981     0.16400
H968        H  0.69005984  0.31060878  0.68525604     0.02100
H969        H  0.59679251  0.31025347  0.59499275     0.16700
H970        H  0.59767139  0.39612974  0.67829400     0.16500
C971        C  0.63264684  0.12208269  0.62517733     0.88300
C972        C  0.62633710  0.16534217  0.61880871    -0.52000
C973        C  0.65109771  0.18716965  0.64097596     0.11200
C974        C  0.68010208  0.16450839  0.66737720     0.22100
C975        C  0.67555882  0.11487286  0.61452472    -0.52700
C976        C  0.70032185  0.13707436  0.63662403     0.11300
C977        C  0.62996663  0.11653834  0.67219008    -0.52200
C978        C  0.65459113  0.13885542  0.69412697     0.11800
H979        H  0.60441574  0.17842330  0.59945317     0.16400
H980        H  0.70014908  0.18265153  0.68548800     0.02100
H981        H  0.68541138  0.09391893  0.59178051     0.16700
H982        H  0.60976226  0.09728867  0.68684301     0.16500
C983        C  0.88443557  0.13376993  0.88373461     0.88300
C984        C  0.88801282  0.17749038  0.88538032    -0.52000
C985        C  0.86257723  0.19611305  0.86013127     0.11200
C986        C  0.83604069  0.16968169  0.83548792     0.22100
C987        C  0.84167843  0.12629185  0.89399025    -0.52700
C988        C  0.81651132  0.14521098  0.86858712     0.11300
C989        C  0.88915460  0.12328822  0.83782156    -0.52200
C990        C  0.86375912  0.14206158  0.81277965     0.11800
H991        H  0.90852204  0.19236570  0.90490409     0.16400
H992        H  0.81545558  0.18500712  0.81479901     0.02100
H993        H  0.83228125  0.10810821  0.91914059     0.16700
H994        H  0.91084120  0.10321460  0.82617348     0.16500
C995        C  0.88620988  0.11947077  0.61685907     0.88300
C996        C  0.84291389  0.11275665  0.60800949    -0.52000
C997        C  0.81858130  0.13482119  0.63181266     0.11200
C998        C  0.83932640  0.16151671  0.66183120     0.22100
C999        C  0.89132714  0.16272286  0.61116691    -0.52700
C1000       C  0.86667438  0.18449057  0.63456445     0.11300
C1001       C  0.89066279  0.11305796  0.66384613    -0.52200
C1002       C  0.86593643  0.13520029  0.68695867     0.11800
H1003       H  0.83260659  0.09249376  0.58511720     0.16400
H1004       H  0.81945132  0.17947252  0.68108716     0.02100
H1005       H  0.91213750  0.17498807  0.58994116     0.16700
H1006       H  0.91142356  0.09364908  0.67790862     0.15700
C1007       C  0.87354348  0.36541134  0.60720120     0.88300
C1008       C  0.88209264  0.32239564  0.60332398    -0.52000
C1009       C  0.85989532  0.30085257  0.62891726     0.11200
C1010       C  0.83126268  0.32397785  0.65578898     0.22100
C1011       C  0.82983437  0.36973088  0.59933272    -0.52700
C1012       C  0.80790594  0.34813668  0.62503451     0.11300
C1013       C  0.87847051  0.37487208  0.65340363    -0.52200
C1014       C  0.85628273  0.35304654  0.67855266     0.11800
H1015       H  0.90367418  0.31021183  0.58244799     0.16400
H1016       H  0.81322132  0.30637524  0.67667370     0.02100
H1017       H  0.81734424  0.38893440  0.57650042     0.16700
H1018       H  0.89739969  0.39697511  0.66505079     0.16500
C1019       C  0.87761022  0.37738236  0.87289856     0.88300
C1020       C  0.83481512  0.38494937  0.88446206    -0.52000
C1021       C  0.80961488  0.36310899  0.86214845     0.11200
C1022       C  0.82923878  0.33611984  0.83069585     0.22100
C1023       C  0.88333579  0.33399698  0.87844121    -0.52700
C1024       C  0.85801770  0.31263862  0.85633195     0.11300
C1025       C  0.87999041  0.38360250  0.82601154    -0.52200
C1026       C  0.85471367  0.36191374  0.80416983     0.11800
H1027       H  0.82549879  0.40511562  0.90823361     0.16400
H1028       H  0.80879657  0.31847099  0.81249375     0.02100
H1029       H  0.90556077  0.32125272  0.89790393     0.16700
H1030       H  0.90060728  0.40243275  0.81138571     0.16500
C1031       C  0.85549957  0.35767585  0.72269643    -0.11500
C1032       C  0.85469026  0.36053535  0.75977943    -0.13100
C1033       C  0.86539025  0.22556139  0.63260389    -0.11500
C1034       C  0.86325224  0.25987378  0.63080603    -0.13100
C1035       C  0.86430795  0.13749076  0.76857016    -0.11500
C1036       C  0.86537646  0.13513670  0.73142121    -0.13100
C1037       C  0.86037158  0.23713999  0.85775507    -0.11500
C1038       C  0.85890637  0.27151191  0.85671581    -0.13100
C1039       C  0.77682495  0.13345137  0.62997938    -0.11500
C1040       C  0.74190806  0.13454356  0.63190877    -0.13100
C1041       C  0.64484216  0.26229981  0.63996195    -0.11500
C1042       C  0.64833801  0.22811587  0.64071808    -0.13100
C1043       C  0.73166256  0.35208536  0.62850892    -0.11500
C1044       C  0.76635800  0.35037786  0.62577772    -0.13100
C1045       C  0.64310072  0.35539422  0.77186044    -0.11500
C1046       C  0.64296645  0.35611011  0.73447782    -0.13100
C1047       C  0.76808832  0.36370986  0.86802971    -0.11500
C1048       C  0.73325251  0.36167248  0.87027611    -0.13100
C1049       C  0.65240962  0.14124086  0.77591305    -0.11500
C1050       C  0.65420932  0.14007386  0.73867466    -0.13100
C1051       C  0.77508064  0.14339108  0.87297165    -0.11500
C1052       C  0.74025969  0.14316093  0.87488806    -0.13100
C1053       C  0.64286320  0.23215657  0.87661585    -0.11500
C1054       C  0.64232947  0.26683371  0.87553661    -0.13100
C1055       C  0.58518292  0.06988042  0.90665107    -0.14700
C1056       C  0.61059522  0.09692867  0.91857577    -0.29800
H1057       H  0.57665110  0.06679031  0.87459816     0.14400
H1058       H  0.61590579  0.10058551  0.95154950     0.14900
C1059       C  0.60003494  0.42786672  0.58684080    -0.14700
C1060       C  0.59582130  0.39006319  0.59149222    -0.29800
H1061       H  0.62298106  0.44219767  0.60352698     0.14400
H1062       H  0.57439690  0.37520649  0.57308498     0.14900
C1063       C  0.91267341  0.09715886  0.58774255    -0.14700
C1064       C  0.93798842  0.06888840  0.59772210    -0.29800
H1065       H  0.91002137  0.10511548  0.55531727     0.14400
H1066       H  0.93964308  0.05752841  0.62882349     0.14900
C1067       C  0.57723377  0.10617535  0.57700798    -0.14700
C1068       C  0.60619729  0.09524710  0.60225368    -0.29800
H1069       H  0.57066844  0.13587044  0.57114956     0.14400
H1070       H  0.61222538  0.06493541  0.60615624     0.14900
C1071       C  0.90717682  0.39967375  0.89710810    -0.14700
C1072       C  0.90885527  0.43800940  0.89865253    -0.29800
H1073       H  0.92824684  0.38331854  0.91494311     0.14400
H1074       H  0.88676075  0.45550805  0.88389235     0.14900
C1075       C  0.91278998  0.11342388  0.91155978    -0.14700
C1076       C  0.91400144  0.07519495  0.91481302    -0.29800
H1077       H  0.93189730  0.13058476  0.93054228     0.14400
H1078       H  0.89394241  0.05797203  0.89711044     0.14900
C1079       C  0.59510250  0.39999913  0.90921701    -0.14700
C1080       C  0.60352656  0.42884836  0.93541009    -0.29800
H1081       H  0.56486470  0.39394747  0.90325941     0.14400
H1082       H  0.63310656  0.43514889  0.94341872     0.14900
C1083       C  0.93593407  0.39255620  0.58292752    -0.14700
C1084       C  0.89743548  0.38993906  0.57928294    -0.29800
H1085       H  0.95182913  0.37625191  0.60597376     0.14400
H1086       H  0.88257388  0.40732797  0.55626767     0.14900
O1087       O  0.97436512  0.94074217  0.42782132    -0.78400
O1088       O  0.53502427  0.55439902  0.44530303    -0.78400
O1089       O  0.91999330  0.53378937  0.48944683    -0.78400
O1090       O  0.58326980  0.96384596  0.47874693    -0.78300
O1091       O  0.96874126  0.54418242  0.44632218    -0.78500
O1092       O  0.53202154  0.95615210  0.43896993    -0.78400
O1093       O  0.57781247  0.53890664  0.49192043    -0.78400
O1094       O  0.92687016  0.97045778  0.45843782    -0.78400
C1095       C  0.93935871  0.95011819  0.42904257     1.11300
C1096       C  0.56966738  0.55461012  0.45783660     1.11200
C1097       C  0.93289100  0.54573179  0.45474108     1.11300
C1098       C  0.56821544  0.95267006  0.44477838     1.11200
O1099       O  0.54676305  0.91928769  0.02900421    -0.78400
O1100       O  0.96658433  0.57424538  0.03079676    -0.78500
O1101       O  0.95959402  0.97451726  0.06461795    -0.78400
O1102       O  0.59279873  0.53254030  0.03499201    -0.78400
O1103       O  0.53771617  0.56426630  0.04174578    -0.78400
O1104       O  0.96270382  0.92078643  0.03071350    -0.78400
O1105       O  0.55737665  0.97021037  0.06723963    -0.78300
O1106       O  0.96474445  0.51895519  0.06181176    -0.78400
Co1107     Co  0.49802396  0.95435781  0.48868390     1.51500
Co1108     Co  0.99937131  0.56340907  0.98029197     1.51700
Co1109     Co  0.95127324  0.99074715  0.51070086     1.51600
Co1110     Co  0.54693408  0.51046519  0.01397694     1.51500
O1111       O  0.51064128  0.00965387  0.49991019    -1.40300
C1112       C  0.56033475  0.93471400  0.06170283     1.11200
C1113       C  0.95956384  0.55460577  0.06287889     1.11300
C1114       C  0.95255292  0.93935487  0.06278435     1.11300
C1115       C  0.57372358  0.55971305  0.05141113     1.11200
C1116       C  0.62488333  0.62368418  0.38283703     0.88300
C1117       C  0.66817012  0.61612472  0.39310078    -0.52000
C1118       C  0.69298524  0.63776920  0.37028347     0.11200
C1119       C  0.67291660  0.66480463  0.33968588     0.22100
C1120       C  0.61939317  0.66716795  0.38876466    -0.52700
C1121       C  0.64457988  0.68858586  0.36628218     0.11300
C1122       C  0.62224427  0.61733070  0.33576980    -0.52200
C1123       C  0.64741118  0.63864695  0.31340648     0.11800
H1124       H  0.67878334  0.59573790  0.41562361     0.16400
H1125       H  0.69327771  0.68218056  0.32118120     0.02100
H1126       H  0.59751638  0.67981072  0.40897413     0.16700
H1127       H  0.60256425  0.59726594  0.32146744     0.16500
C1128       C  0.62413874  0.87120904  0.38522512     0.88300
C1129       C  0.62092856  0.82775162  0.39226221    -0.52000
C1130       C  0.64539501  0.80610709  0.36832782     0.11200
C1131       C  0.67121256  0.82961206  0.33963363     0.22100
C1132       C  0.66732300  0.87971678  0.39233250    -0.52700
C1133       C  0.69186268  0.85796031  0.36835966     0.11300
C1134       C  0.61803406  0.87606265  0.33815763    -0.52200
C1135       C  0.64275447  0.85417859  0.31445062     0.11800
H1136       H  0.60060737  0.81516219  0.41377788     0.16400
H1137       H  0.69116219  0.81192969  0.32018643     0.02100
H1138       H  0.67747708  0.90086922  0.41433164     0.16700
H1139       H  0.59588762  0.89454976  0.32495198     0.16500
C1140       C  0.62203240  0.85618448  0.11606099     0.88300
C1141       C  0.66404732  0.86852421  0.10783150    -0.52000
C1142       C  0.69073992  0.85048968  0.13233508     0.11200
C1143       C  0.67306019  0.82214678  0.16312277     0.22100
C1144       C  0.62309033  0.81255107  0.11107410    -0.52700
C1145       C  0.64970706  0.79479873  0.13567119     0.11300
C1146       C  0.61547538  0.86306058  0.16273801    -0.52200
C1147       C  0.64235692  0.84559290  0.18731290     0.11800
H1148       H  0.67192907  0.88890216  0.08410870     0.16400
H1149       H  0.69473008  0.80753164  0.18311874     0.02100
H1150       H  0.60457708  0.79707095  0.08984703     0.16700
H1151       H  0.59190641  0.88046631  0.17516743     0.16500
C1152       C  0.65124657  0.61223106  0.11604113     0.88300
C1153       C  0.64397732  0.65501632  0.10764474    -0.52000
C1154       C  0.66385975  0.67849559  0.13374418     0.11200
C1155       C  0.68938400  0.65737412  0.16523323     0.22100
C1156       C  0.69536548  0.60701469  0.11339840    -0.52700
C1157       C  0.71520068  0.63062017  0.13895017     0.11300
C1158       C  0.64140813  0.60700984  0.16218408    -0.52200
C1159       C  0.66135859  0.63086832  0.18775170     0.11800
H1160       H  0.62444206  0.66563957  0.08392238     0.16400
H1161       H  0.70562403  0.67662025  0.18623182     0.02100
H1162       H  0.70974782  0.58674141  0.09273959     0.16700
H1163       H  0.62029635  0.58682473  0.17343812     0.16500
C1164       C  0.87797970  0.62528273  0.39506017     0.88300
C1165       C  0.88087710  0.66913697  0.39914491    -0.52000
C1166       C  0.85781853  0.68878255  0.37203885     0.11200
C1167       C  0.83395982  0.66303713  0.34353573     0.22100
C1168       C  0.83458645  0.61712749  0.40015488    -0.52700
C1169       C  0.81160076  0.63695276  0.37318436     0.11300
C1170       C  0.88712527  0.61698949  0.34929155    -0.52200
C1171       C  0.86425713  0.63687992  0.32248203     0.11800
H1172       H  0.89981536  0.68329415  0.42099060     0.16400
H1173       H  0.81529993  0.67906846  0.32144912     0.02100
H1174       H  0.82313176  0.59791980  0.42332881     0.16700
H1175       H  0.91052060  0.59817234  0.33907135     0.16500
C1176       C  0.90163528  0.62964837  0.12684622     0.88300
C1177       C  0.85948170  0.61799791  0.11809144    -0.52000
C1178       C  0.83297774  0.63716953  0.14218874     0.11200
C1179       C  0.85052752  0.66583497  0.17238338     0.22100
C1180       C  0.90150854  0.67323649  0.12135271    -0.52700
C1181       C  0.87474748  0.69195694  0.14500603     0.11300
C1182       C  0.90708049  0.62339070  0.17368166    -0.52200
C1183       C  0.87988837  0.64216876  0.19725254     0.11800
H1184       H  0.85145874  0.59700608  0.09487740     0.16400
H1185       H  0.82871261  0.68127948  0.19176529     0.02100
H1186       H  0.92033230  0.68800059  0.09991368     0.16700
H1187       H  0.92945174  0.60508844  0.18676771     0.15700
C1188       C  0.87653080  0.87176073  0.11341283     0.88300
C1189       C  0.88351637  0.82838623  0.10958830    -0.52000
C1190       C  0.85961525  0.80725821  0.13370256     0.11200
C1191       C  0.83064822  0.83088678  0.15927752     0.22100
C1192       C  0.83302439  0.87750612  0.10369515    -0.52700
C1193       C  0.80915320  0.85613262  0.12801652     0.11300
C1194       C  0.87996802  0.87997754  0.16031621    -0.52200
C1195       C  0.85586470  0.85837010  0.18379957     0.11800
H1196       H  0.90609651  0.81561178  0.09036050     0.16400
H1197       H  0.81139047  0.81341401  0.17901943     0.02100
H1198       H  0.82224579  0.89684962  0.08007173     0.16700
H1199       H  0.90010759  0.89966859  0.17425210     0.16500
C1200       C  0.87872601  0.87071658  0.37884776     0.88300
C1201       C  0.83574837  0.87974078  0.38838155    -0.52000
C1202       C  0.81063124  0.85810041  0.36569059     0.11200
C1203       C  0.83064630  0.82971951  0.33583479     0.22100
C1204       C  0.88301917  0.82733413  0.38591617    -0.52700
C1205       C  0.85786032  0.80593184  0.36345597     0.11300
C1206       C  0.88287474  0.87572509  0.33202756    -0.52200
C1207       C  0.85763644  0.85455414  0.30971215     0.11800
H1208       H  0.82623006  0.90101914  0.41087925     0.16400
H1209       H  0.81030544  0.81236534  0.31719287     0.02100
H1210       H  0.90406630  0.81465878  0.40686723     0.16700
H1211       H  0.90371250  0.89460318  0.31778849     0.16500
C1212       C  0.85617599  0.85852024  0.22822573    -0.11500
C1213       C  0.85632878  0.85649930  0.26536697    -0.13100
C1214       C  0.86832843  0.73255059  0.14191405    -0.11500
C1215       C  0.86378616  0.76648920  0.13786773    -0.13100
C1216       C  0.87103165  0.63657025  0.27838653    -0.11500
C1217       C  0.87657412  0.63822534  0.24154398    -0.13100
C1218       C  0.85718548  0.73012156  0.36908356    -0.11500
C1219       C  0.85705194  0.76459313  0.36613012    -0.13100
C1220       C  0.79172984  0.63220231  0.13964275    -0.11500
C1221       C  0.75689244  0.63098667  0.13959460    -0.13100
C1222       C  0.65561524  0.75388331  0.13482162    -0.11500
C1223       C  0.65962453  0.71959051  0.13361429    -0.13100
C1224       C  0.73220446  0.85559998  0.12802241    -0.11500
C1225       C  0.76717040  0.85735394  0.12613255    -0.13100
C1226       C  0.64158828  0.85256318  0.26952612    -0.11500
C1227       C  0.64187987  0.84943874  0.23211676    -0.13100
C1228       C  0.76879456  0.86100710  0.36912155    -0.11500
C1229       C  0.73373166  0.86084138  0.36979586    -0.13100
C1230       C  0.65117748  0.63524695  0.26900514    -0.11500
C1231       C  0.65540451  0.63253618  0.23198646    -0.13100
C1232       C  0.76975149  0.63503777  0.37380227    -0.11500
C1233       C  0.73474689  0.63516828  0.37341908    -0.13100
C1234       C  0.64485282  0.73003780  0.36770561    -0.11500
C1235       C  0.64535191  0.76463397  0.36841180    -0.13100
C1236       C  0.60091428  0.57409865  0.43473838    -0.14700
C1237       C  0.59403433  0.60094375  0.40575020    -0.29800
H1238       H  0.63019655  0.56747338  0.44424197     0.14400
H1239       H  0.56415773  0.60753540  0.39783459     0.14900
C1240       C  0.58429984  0.91300673  0.09160008    -0.14700
C1241       C  0.59241635  0.87552751  0.08817201    -0.29800
H1242       H  0.59825047  0.92927255  0.11599686     0.14400
H1243       H  0.57827537  0.85880368  0.06429526     0.14900
C1244       C  0.93125803  0.61037436  0.09879472    -0.14700
C1245       C  0.93878837  0.57258488  0.09834476    -0.29800
H1246       H  0.94530902  0.62812231  0.07585995     0.14400
H1247       H  0.92568910  0.55436948  0.12145294     0.14900
C1248       C  0.59200571  0.58535526  0.08197298    -0.14700
C1249       C  0.63057716  0.58537058  0.08699554    -0.29800
H1250       H  0.57397684  0.60554741  0.09916398     0.14400
H1251       H  0.64818766  0.56559073  0.06873250     0.14900
C1252       C  0.90799435  0.89348891  0.40310103    -0.14700
C1253       C  0.91153131  0.93173864  0.40103273    -0.29800
H1254       H  0.92764620  0.87767842  0.42318937     0.14400
H1255       H  0.89100641  0.94888125  0.38349036     0.14900
C1256       C  0.90427180  0.60362108  0.42460545    -0.14700
C1257       C  0.90616678  0.56519824  0.42594276    -0.29800
H1258       H  0.92277688  0.61991619  0.44514493     0.14400
H1259       H  0.88731976  0.54815107  0.40661477     0.14900
C1260       C  0.59603214  0.89416379  0.41275144    -0.14700
C1261       C  0.59323870  0.93267509  0.41365611    -0.29800
H1262       H  0.57774214  0.87834768  0.43385630     0.14400
H1263       H  0.61205650  0.94949775  0.39417891     0.14900
C1264       C  0.92817705  0.92115061  0.09478557    -0.14700
C1265       C  0.90314767  0.89333011  0.08422751    -0.29800
H1266       H  0.92902800  0.93266162  0.12593612     0.14400
H1267       H  0.90151138  0.88488848  0.05181232     0.14900
O1268       O  0.96336217  0.93756049  0.94375534    -0.78400
O1269       O  0.53206053  0.59420180  0.96478179    -0.78400
O1270       O  0.91491124  0.54016527  0.99150111    -0.78400
O1271       O  0.59136004  0.96178859  0.98627899    -0.78300
O1272       O  0.95461644  0.55919450  0.94318298    -0.78500
O1273       O  0.54467391  0.94493209  0.94376811    -0.78400
O1274       O  0.56084924  0.53784115  0.95849422    -0.78400
O1275       O  0.91810129  0.95802705  0.98671883    -0.78400
C1276       C  0.92800440  0.94024536  0.95384579     1.11300
C1277       C  0.55835603  0.57346986  0.94863891     1.11200
C1278       C  0.92086970  0.55834463  0.95799811     1.11300
C1279       C  0.58008201  0.94592021  0.95309125     1.11200
O1280       O  0.53743992  0.92219390  0.51887643    -0.78400
O1281       O  0.96468991  0.57766206  0.52677321    -0.78500
O1282       O  0.90990203  0.96729837  0.53746586    -0.78400
O1283       O  0.53873226  0.52628268  0.56822656    -0.78400
O1284       O  0.52966482  0.57912921  0.53204611    -0.78400
O1285       O  0.95435744  0.92459364  0.51506856    -0.78400
O1286       O  0.54868268  0.96787232  0.56263823    -0.78300
O1287       O  0.95983114  0.53158337  0.57098048    -0.78400
Co1288     Co  0.50629247  0.93886768  0.98807199     1.51500
Co1289     Co  0.00449720  0.54758309  0.49352338     1.51700
Co1290     Co  0.94736282  0.00147968  0.01231140     1.51600
Co1291     Co  0.54758640  0.49659463  0.51740284     1.51500
O1292       O  0.51156357  0.99549821  0.00102439    -1.40300
C1293       C  0.55084978  0.93319286  0.55331141     1.11200
C1294       C  0.95472825  0.56615145  0.56235677     1.11300
C1295       C  0.92259043  0.93302151  0.53501860     1.11300
C1296       C  0.54101340  0.56209938  0.56478960     1.11200
C1297       C  0.61684894  0.64546052  0.88494694     0.88300
C1298       C  0.65962843  0.63544090  0.89347860    -0.52000
C1299       C  0.68455446  0.65297425  0.86700944     0.11200
C1300       C  0.66484695  0.67888585  0.83503698     0.22100
C1301       C  0.61464052  0.68918796  0.88691700    -0.52700
C1302       C  0.63980710  0.70653575  0.86100375     0.11300
C1303       C  0.61059181  0.63532545  0.83908722    -0.52200
C1304       C  0.63599662  0.65270202  0.81315458     0.11800
H1305       H  0.66916861  0.61623540  0.91782244     0.16400
H1306       H  0.68532502  0.69317321  0.81371593     0.02100
H1307       H  0.59524827  0.70510295  0.90737985     0.16700
H1308       H  0.58880044  0.61556910  0.82830820     0.16500
C1309       C  0.62723669  0.88909460  0.86401883     0.88300
C1310       C  0.62325945  0.84719161  0.87762849    -0.52000
C1311       C  0.64600016  0.82248189  0.85526140     0.11200
C1312       C  0.67068668  0.84145284  0.82214541     0.22100
C1313       C  0.67063509  0.89750400  0.86715291    -0.52700
C1314       C  0.69320045  0.87208083  0.84578181     0.11300
C1315       C  0.61845100  0.88852185  0.81746146    -0.52200
C1316       C  0.64110724  0.86339272  0.79581001     0.11800
H1317       H  0.60337865  0.83791500  0.90154539     0.16400
H1318       H  0.68915971  0.82102699  0.80423364     0.02100
H1319       H  0.68251313  0.92022190  0.88609691     0.16700
H1320       H  0.59535163  0.90513888  0.80321918     0.16500
C1321       C  0.60461004  0.84892037  0.60336050     0.88300
C1322       C  0.64707238  0.86039346  0.59657732    -0.52000
C1323       C  0.67233643  0.84154208  0.62181823     0.11200
C1324       C  0.65351510  0.81303907  0.65092012     0.22100
C1325       C  0.60439448  0.80555636  0.59737234    -0.52700
C1326       C  0.63005243  0.78703672  0.62241053     0.11300
C1327       C  0.59726449  0.85531352  0.65002461    -0.52200
C1328       C  0.62346649  0.83700449  0.67454241     0.11800
H1329       H  0.65607147  0.88202543  0.57471223     0.16400
H1330       H  0.67439748  0.79768122  0.67126442     0.02100
H1331       H  0.58577627  0.79088477  0.57558516     0.16700
H1332       H  0.57521282  0.87462913  0.66234850     0.16500
C1333       C  0.62700392  0.60527999  0.62146192     0.88300
C1334       C  0.62028768  0.64692859  0.60827372    -0.52000
C1335       C  0.64256717  0.67207752  0.62925613     0.11200
C1336       C  0.66997722  0.65394320  0.66082262     0.22100
C1337       C  0.67083473  0.59835335  0.61516922    -0.52700
C1338       C  0.69317929  0.62426842  0.63561959     0.11300
C1339       C  0.62089850  0.60520551  0.66860976    -0.52200
C1340       C  0.64338917  0.63081617  0.68900004     0.11800
H1341       H  0.59927050  0.65580176  0.58514946     0.16400
H1342       H  0.68806734  0.67495508  0.67762572     0.02100
H1343       H  0.68290591  0.57619303  0.59514837     0.16700
H1344       H  0.60001348  0.58735116  0.68420948     0.16500
C1345       C  0.86877222  0.62699933  0.87965595     0.88300
C1346       C  0.87515449  0.67006193  0.88626617    -0.52000
C1347       C  0.85196838  0.69277798  0.86241576     0.11200
C1348       C  0.82449078  0.67075083  0.83410760     0.22100
C1349       C  0.82519995  0.62141676  0.88734142    -0.52700
C1350       C  0.80229802  0.64443997  0.86348600     0.11300
C1351       C  0.87410811  0.62092976  0.83258823    -0.52200
C1352       C  0.85110524  0.64399897  0.80888124     0.11800
H1353       H  0.89650508  0.68149019  0.90744695     0.16400
H1354       H  0.80563241  0.68942653  0.81478609     0.02100
H1355       H  0.81313844  0.60156988  0.90936835     0.16700
H1356       H  0.89506993  0.60099946  0.81927515     0.16500
C1357       C  0.87827892  0.63514120  0.61109399     0.88300
C1358       C  0.83628452  0.62263273  0.60358107    -0.52000
C1359       C  0.80968679  0.64155915  0.62759983     0.11200
C1360       C  0.82711557  0.67166027  0.65653120     0.22100
C1361       C  0.87765132  0.67839613  0.60441324    -0.52700
C1362       C  0.85102637  0.69741543  0.62804473     0.11300
C1363       C  0.88421647  0.63026914  0.65843767    -0.52200
C1364       C  0.85717044  0.64928606  0.68189247     0.11800
H1365       H  0.82847029  0.60028142  0.58181911     0.16400
H1366       H  0.80533873  0.68729756  0.67575983     0.02100
H1367       H  0.89665557  0.69275526  0.58280877     0.16700
H1368       H  0.90690752  0.61335714  0.67273354     0.15700
C1369       C  0.85139635  0.87998158  0.60677455     0.88300
C1370       C  0.86025370  0.83702660  0.59907621    -0.52000
C1371       C  0.84074869  0.81366548  0.62546155     0.11200
C1372       C  0.81452327  0.83462970  0.65649468     0.22100
C1373       C  0.80727756  0.88341869  0.60350074    -0.52700
C1374       C  0.78815084  0.85956274  0.62929681     0.11300
C1375       C  0.86048388  0.88647008  0.65274412    -0.52200
C1376       C  0.84153304  0.86251115  0.67854145     0.11800
H1377       H  0.87935932  0.82571232  0.57523472     0.16400
H1378       H  0.79877565  0.81531762  0.67772671     0.02100
H1379       H  0.79251473  0.90209346  0.58169509     0.16700
H1380       H  0.88105455  0.90738009  0.66377316     0.16500
C1381       C  0.87734380  0.87425453  0.87323668     0.88300
C1382       C  0.83388615  0.88368664  0.87989101    -0.52000
C1383       C  0.81014440  0.86170600  0.85632313     0.11200
C1384       C  0.83107997  0.83246930  0.82877197     0.22100
C1385       C  0.88125651  0.83113915  0.88143765    -0.52700
C1386       C  0.85696230  0.80944344  0.85824210     0.11300
C1387       C  0.88324004  0.87837614  0.82616077    -0.52200
C1388       C  0.85876241  0.85659688  0.80320012     0.11800
H1389       H  0.82242349  0.90639259  0.89942547     0.16400
H1390       H  0.81132070  0.81480058  0.80972813     0.02100
H1391       H  0.90146127  0.81893239  0.90360679     0.16700
H1392       H  0.90382571  0.89775972  0.81236595     0.16500
C1393       C  0.84915864  0.86129967  0.72230083    -0.11500
C1394       C  0.85525627  0.85944082  0.75894059    -0.13100
C1395       C  0.84668672  0.73833503  0.62638234    -0.11500
C1396       C  0.84428061  0.77265074  0.62490593    -0.13100
C1397       C  0.85358690  0.64508658  0.76406550    -0.11500
C1398       C  0.85568659  0.64694154  0.72669146    -0.13100
C1399       C  0.85415074  0.73394292  0.86246759    -0.11500
C1400       C  0.85569595  0.76833401  0.86110308    -0.13100
C1401       C  0.76897755  0.63249751  0.62796363    -0.11500
C1402       C  0.73466480  0.62676891  0.63067112    -0.13100
C1403       C  0.63473961  0.74643855  0.62234076    -0.11500
C1404       C  0.63871601  0.71246066  0.62424022    -0.13100
C1405       C  0.71290682  0.84951241  0.62368865    -0.11500
C1406       C  0.74703159  0.85486757  0.62697509    -0.13100
C1407       C  0.63390369  0.85424315  0.75318741    -0.11500
C1408       C  0.62773506  0.84576016  0.71772724    -0.13100
C1409       C  0.76901945  0.86770127  0.85395948    -0.11500
C1410       C  0.73456770  0.87092152  0.84985120    -0.13100
C1411       C  0.63760325  0.64478461  0.76936781    -0.11500
C1412       C  0.64013376  0.63789622  0.73285145    -0.13100
C1413       C  0.76070134  0.64509788  0.86660887    -0.11500
C1414       C  0.72592033  0.64756157  0.86809468    -0.13100
C1415       C  0.64293747  0.74738651  0.85968787    -0.11500
C1416       C  0.64442324  0.78167484  0.85907463    -0.13100
C1417       C  0.58550647  0.58952702  0.91841250    -0.14700
C1418       C  0.58845999  0.62741717  0.91404394    -0.29800
H1419       H  0.60450103  0.57036434  0.90102099     0.14400
H1420       H  0.56994674  0.64621160  0.93251552     0.14900
C1421       C  0.57272450  0.90820888  0.58108603    -0.14700
C1422       C  0.57690955  0.87050401  0.57587430    -0.29800
H1423       H  0.58812420  0.92213048  0.60620735     0.14400
H1424       H  0.56140886  0.85576436  0.55143916     0.14900
C1425       C  0.90638378  0.61522046  0.58148696    -0.14700
C1426       C  0.93449563  0.59063812  0.59286730    -0.29800
H1427       H  0.90140160  0.61965658  0.54857742     0.14400
H1428       H  0.93872858  0.58341259  0.62507535     0.14900
C1429       C  0.56292454  0.58360569  0.59560979    -0.14700
C1430       C  0.60143620  0.57788703  0.59838582    -0.29800
H1431       H  0.54927228  0.60819793  0.61048497     0.14400
H1432       H  0.61502470  0.55480500  0.58073979     0.14900
C1433       C  0.90664839  0.89693021  0.89786068    -0.14700
C1434       C  0.89794380  0.92140978  0.92893165    -0.29800
H1435       H  0.93688369  0.89128062  0.89054225     0.14400
H1436       H  0.86832736  0.92648138  0.93845105     0.14900
C1437       C  0.89735062  0.60304297  0.90452612    -0.14700
C1438       C  0.88923328  0.57929657  0.93632145    -0.29800
H1439       H  0.92742402  0.60673384  0.89574647     0.14400
H1440       H  0.85992372  0.57588376  0.94739190     0.14900
C1441       C  0.60135855  0.91609877  0.88796079    -0.14700
C1442       C  0.60826423  0.92466756  0.92773297    -0.29800
H1443       H  0.57583355  0.92787600  0.87282795     0.14400
H1444       H  0.63451577  0.91434584  0.94261152     0.14900
C1445       C  0.90174386  0.90198396  0.55553573    -0.14700
C1446       C  0.87124886  0.90920814  0.58025303    -0.29800
H1447       H  0.91356686  0.87337089  0.55218453     0.14400
H1448       H  0.86139335  0.93858610  0.58442953     0.14900
loop_ 
_geom_bond_atom_site_label_1 
_geom_bond_atom_site_label_2 
_geom_bond_distance 
_geom_bond_site_symmetry_2 
_ccdc_geom_bond_type 
O1            C9   1.270       .  A
O1         Co745   1.983       .  S
O2           C10   1.247       .  A
O2         Co927   1.941       .  S
O3           C11   1.257       .  A
O3         Co385   2.004   1_545  S
O4           C12   1.261       .  A
O4         Co567   2.000       .  S
O5           C11   1.257       .  A
O5         Co203   1.974       .  S
O6           C12   1.260       .  A
O6          Co21   1.971       .  S
O7           C10   1.259       .  A
O7         Co205   2.032       .  S
O8            C9   1.282       .  A
O8          Co23   2.049       .  S
C9          C167   1.493       .  S
C10         C150   1.472       .  S
C11         C171   1.478       .  S
C12         C175   1.472       .  S
O13          C26   1.268       .  A
O13        Co202   2.018   1_554  S
O14          C27   1.286       .  A
O14         Co22   2.085   1_554  S
O15          C28   1.261       .  A
O15        Co204   1.966       .  S
O16          C29   1.278       .  A
O16         Co24   1.923       .  S
O17          C29   1.287       .  A
O17        Co746   2.034   1_455  S
O18          C28   1.270       .  A
O18        Co926   2.015   1_554  S
O19          C26   1.263       .  A
O19        Co386   1.983       .  S
O20          C27   1.272       .  A
O20        Co566   1.913       .  S
Co21        O725   1.969   1_455  S
Co21        O194   2.034       .  S
Co21        O923   2.007   1_455  S
Co21         O25   2.045   1_455  S
Co22        O907   1.974       .  S
Co22        O186   1.895       .  S
Co22        O741   1.998   1_556  S
Co22       O1292   2.006   1_546  S
Co23        O365   2.000       .  S
Co23        O196   1.957       .  S
Co23        O563   1.960       .  S
Co23        O749   2.027       .  S
Co24        O547   2.007   1_544  S
Co24        O188   1.978   1_554  S
Co24        O381   1.996   1_545  S
Co24        O568   1.948   1_444  S
O25       Co1289   2.024   1_655  S
O25        Co747   2.013       .  S
O25        Co567   1.999   1_655  S
C26         C154   1.493       .  S
C27         C159   1.474       .  S
C28         C178   1.468       .  S
C29         C162   1.467       .  S
C30          C31   1.541       .  S
C30          C36   1.532       .  S
C30          C34   1.545       .  S
C30         C151   1.510       .  S
C31          H38   1.086       .  S
C31          C32   1.368       .  D
C32          C33   1.537       .  S
C32         C147   1.446       .  S
C33          C37   1.535       .  S
C33          C35   1.534       .  S
C33          H39   1.112       .  S
C34          H40   1.087       .  S
C34          C35   1.363       .  D
C35         C148   1.447       .  S
C36          H41   1.086       .  S
C36          C37   1.360       .  D
C37         C144   1.436       .  S
C42          C43   1.543       .  S
C42          C48   1.532       .  S
C42          C46   1.545       .  S
C42         C174   1.515       .  S
C43          H50   1.087       .  S
C43          C44   1.366       .  D
C44          C45   1.534       .  S
C44         C149   1.447       .  S
C45          C49   1.536       .  S
C45          C47   1.535       .  S
C45          H51   1.112       .  S
C46          H52   1.083       .  S
C46          C47   1.364       .  D
C47         C143   1.442       .  S
C48          H53   1.087       .  S
C48          C49   1.359       .  D
C49         C140   1.439       .  S
C54          C55   1.552       .  S
C54          C60   1.545       .  S
C54          C58   1.540       .  S
C54         C155   1.531       .  S
C55          H62   1.086       .  S
C55          C56   1.372       .  D
C56          C57   1.532       .  S
C56         C138   1.460       .  S
C57          C61   1.531       .  S
C57          C59   1.534       .  S
C57          H63   1.112       .  S
C58          H64   1.087       .  S
C58          C59   1.361       .  D
C59         C136   1.445       .  S
C60          H65   1.084       .  S
C60          C61   1.368       .  D
C61         C141   1.439       .  S
C66          C67   1.547       .  S
C66          C72   1.540       .  S
C66          C70   1.529       .  S
C66         C163   1.508       .  S
C67          H74   1.086       .  S
C67          C68   1.369       .  D
C68          C69   1.529       .  S
C68         C137   1.443       .  S
C69          C73   1.529       .  S
C69          C71   1.523       .  S
C69          H75   1.113       .  S
C70          H76   1.088       .  S
C70          C71   1.357       .  D
C71         C135   1.419       .  S
C72          H77   1.086       .  S
C72          C73   1.363       .  D
C73         C145   1.435       .  S
C78          C79   1.544       .  S
C78          C84   1.533       .  S
C78          C82   1.547       .  S
C78         C170   1.519       .  S
C79          H86   1.086       .  S
C79          C80   1.367       .  D
C80          C81   1.537       .  S
C80         C132   1.453       .  S
C81          C85   1.536       .  S
C81          C83   1.537       .  S
C81          H87   1.112       .  S
C82          H88   1.083       .  S
C82          C83   1.366       .  D
C83         C146   1.447       .  S
C84          H89   1.087       .  S
C84          C85   1.358       .  D
C85         C130   1.439       .  S
C90          C91   1.530       .  S
C90          C96   1.541       .  S
C90          C94   1.550       .  S
C90         C158   1.512       .  S
C91          H98   1.087       .  S
C91          C92   1.354       .  D
C92          C93   1.520       .  S
C92         C134   1.418       .  S
C93          C97   1.529       .  S
C93          C95   1.527       .  S
C93          H99   1.113       .  S
C94         H100   1.086       .  S
C94          C95   1.373       .  D
C95         C128   1.444       .  S
C96         H101   1.086       .  S
C96          C97   1.366       .  D
C97         C131   1.438       .  S
C102        C103   1.537       .  S
C102        C108   1.536       .  S
C102        C106   1.539       .  S
C102        C179   1.512       .  S
C103        H110   1.087       .  S
C103        C104   1.362       .  D
C104        C105   1.544       .  S
C104        C129   1.447       .  S
C105        C109   1.545       .  S
C105        C107   1.548       .  S
C105        H111   1.111       .  S
C106        H112   1.086       .  S
C106        C107   1.364       .  D
C107        C139   1.459       .  S
C108        H113   1.087       .  S
C108        C109   1.364       .  D
C109        C126   1.451       .  S
C114        C115   1.540       .  S
C114        C120   1.552       .  S
C114        C118   1.545       .  S
C114        C166   1.532       .  S
C115        H122   1.087       .  S
C115        C116   1.363       .  D
C116        C117   1.531       .  S
C116        C142   1.442       .  S
C117        C121   1.532       .  S
C117        C119   1.534       .  S
C117        H123   1.112       .  S
C118        H124   1.086       .  S
C118        C119   1.367       .  D
C119        C133   1.453       .  S
C120        H125   1.084       .  S
C120        C121   1.372       .  D
C121        C127   1.450       .  S
C126        C127   1.211       .  T
C128        C129   1.208       .  T
C130        C131   1.204       .  T
C132        C133   1.212       .  T
C134        C135   1.192       .  T
C136        C137   1.207       .  T
C138        C139   1.217       .  T
C140        C141   1.204       .  T
C142        C143   1.206       .  T
C144        C145   1.202       .  T
C146        C147   1.209       .  T
C148        C149   1.209       .  T
C150        H152   1.086       .  S
C150        C151   1.349       .  D
C151        H153   1.089       .  S
C154        H156   1.083       .  S
C154        C155   1.359       .  D
C155        H157   1.088       .  S
C158        H160   1.088       .  S
C158        C159   1.335       .  D
C159        H161   1.087       .  S
C162        H164   1.087       .  S
C162        C163   1.334       .  D
C163        H165   1.087       .  S
C166        H168   1.088       .  S
C166        C167   1.353       .  D
C167        H169   1.083       .  S
C170        H172   1.088       .  S
C170        C171   1.348       .  D
C171        H173   1.082       .  S
C174        H176   1.088       .  S
C174        C175   1.346       .  D
C175        H177   1.081       .  S
C178        H180   1.086       .  S
C178        C179   1.344       .  D
C179        H181   1.088       .  S
O182        C190   1.263       .  A
O182       Co926   1.960       .  S
O183        C191   1.254       .  A
O183       Co746   2.020   1_456  S
O184        C192   1.289       .  A
O184       Co566   2.090   1_556  S
O185        C193   1.276       .  A
O185       Co386   2.037   1_556  S
O186        C192   1.265       .  A
O187        C193   1.258       .  A
O187       Co202   1.949       .  S
O188        C191   1.241       .  A
O189        C190   1.271       .  A
O189       Co204   2.012   1_556  S
C190        C348   1.469       .  S
C191        C331   1.490       .  S
C192        C352   1.469       .  S
C193        C356   1.478       .  S
O194        C207   1.280       .  A
O195        C208   1.284       .  A
O195       Co203   2.042       .  S
O196        C209   1.250       .  A
O197        C210   1.275       .  A
O197       Co205   1.876       .  S
O198        C210   1.302       .  A
O198       Co927   2.103       .  S
O199        C209   1.260       .  A
O199       Co745   2.012       .  S
O200        C207   1.269       .  A
O200       Co567   1.969       .  S
O201        C208   1.265       .  A
O201       Co385   1.966   1_545  S
Co202       O906   1.955   1_455  S
Co202       O742   2.107   1_456  S
Co202       O206   2.098       .  S
Co203       O726   1.955       .  S
Co203       O922   1.999       .  S
Co203      O1111   2.041       .  S
Co204       O546   2.024   1_554  S
Co204       O382   1.972       .  S
Co204       O930   2.033       .  S
Co205       O366   2.021   1_545  S
Co205       O562   1.978   1_545  S
Co205       O387   1.985   1_545  S
O206      Co1108   2.101   1_455  S
O206       Co928   1.978   1_456  S
O206       Co386   1.988   1_556  S
C207        C335   1.479       .  S
C208        C340   1.482       .  S
C209        C359   1.464       .  S
C210        C343   1.472       .  S
C211        C212   1.550       .  S
C211        C217   1.543       .  S
C211        C215   1.539       .  S
C211        C332   1.526       .  S
C212        H219   1.086       .  S
C212        C213   1.373       .  D
C213        C214   1.532       .  S
C213        C328   1.453       .  S
C214        C218   1.533       .  S
C214        C216   1.532       .  S
C214        H220   1.112       .  S
C215        H221   1.087       .  S
C215        C216   1.360       .  D
C216        C329   1.442       .  S
C217        H222   1.086       .  S
C217        C218   1.368       .  D
C218        C325   1.446       .  S
C223        C224   1.539       .  S
C223        C229   1.545       .  S
C223        C227   1.536       .  S
C223        C355   1.510       .  S
C224        H231   1.086       .  S
C224        C225   1.363       .  D
C225        C226   1.531       .  S
C225        C330   1.442       .  S
C226        C230   1.529       .  S
C226        C228   1.531       .  S
C226        H232   1.112       .  S
C227        H233   1.084       .  S
C227        C228   1.360       .  D
C228        C324   1.428       .  S
C229        H234   1.086       .  S
C229        C230   1.365       .  D
C230        C321   1.443       .  S
C235        C236   1.542       .  S
C235        C241   1.538       .  S
C235        C239   1.541       .  S
C235        C336   1.517       .  S
C236        H243   1.086       .  S
C236        C237   1.365       .  D
C237        C238   1.537       .  S
C237        C319   1.448       .  S
C238        C242   1.537       .  S
C238        C240   1.537       .  S
C238        H244   1.112       .  S
C239        H245   1.087       .  S
C239        C240   1.366       .  D
C240        C317   1.447       .  S
C241        H246   1.086       .  S
C241        C242   1.362       .  D
C242        C322   1.443       .  S
C247        C248   1.549       .  S
C247        C253   1.537       .  S
C247        C251   1.532       .  S
C247        C344   1.515       .  S
C248        H255   1.083       .  S
C248        C249   1.365       .  D
C249        C250   1.536       .  S
C249        C318   1.447       .  S
C250        C254   1.539       .  S
C250        C252   1.540       .  S
C250        H256   1.112       .  S
C251        H257   1.087       .  S
C251        C252   1.359       .  D
C252        C316   1.441       .  S
C253        H258   1.087       .  S
C253        C254   1.363       .  D
C254        C326   1.446       .  S
C259        C260   1.534       .  S
C259        C265   1.534       .  S
C259        C263   1.540       .  S
C259        C351   1.504       .  S
C260        H267   1.087       .  S
C260        C261   1.358       .  D
C261        C262   1.537       .  S
C261        C313   1.438       .  S
C262        C266   1.541       .  S
C262        C264   1.546       .  S
C262        H268   1.111       .  S
C263        H269   1.086       .  S
C263        C264   1.367       .  D
C264        C327   1.454       .  S
C265        H270   1.087       .  S
C265        C266   1.360       .  D
C266        C311   1.443       .  S
C271        C272   1.547       .  S
C271        C277   1.545       .  S
C271        C275   1.534       .  S
C271        C339   1.516       .  S
C272        H279   1.086       .  S
C272        C273   1.369       .  D
C273        C274   1.526       .  S
C273        C315   1.441       .  S
C274        C278   1.530       .  S
C274        C276   1.528       .  S
C274        H280   1.113       .  S
C275        H281   1.087       .  S
C275        C276   1.356       .  D
C276        C309   1.432       .  S
C277        H282   1.086       .  S
C277        C278   1.370       .  D
C278        C312   1.442       .  S
C283        C284   1.535       .  S
C283        C289   1.536       .  S
C283        C287   1.546       .  S
C283        C360   1.507       .  S
C284        H291   1.086       .  S
C284        C285   1.361       .  D
C285        C286   1.529       .  S
C285        C310   1.432       .  S
C286        C290   1.531       .  S
C286        C288   1.533       .  S
C286        H292   1.112       .  S
C287        H293   1.086       .  S
C287        C288   1.369       .  D
C288        C320   1.448       .  S
C289        H294   1.087       .  S
C289        C290   1.359       .  D
C290        C307   1.434       .  S
C295        C296   1.546       .  S
C295        C301   1.536       .  S
C295        C299   1.542       .  S
C295        C347   1.514       .  S
C296        H303   1.082       .  S
C296        C297   1.359       .  D
C297        C298   1.524       .  S
C297        C323   1.428       .  S
C298        C302   1.530       .  S
C298        C300   1.527       .  S
C298        H304   1.112       .  S
C299        H305   1.087       .  S
C299        C300   1.365       .  D
C300        C314   1.438       .  S
C301        H306   1.086       .  S
C301        C302   1.362       .  D
C302        C308   1.434       .  S
C307        C308   1.201       .  T
C309        C310   1.200       .  T
C311        C312   1.207       .  T
C313        C314   1.204       .  T
C315        C316   1.206       .  T
C317        C318   1.209       .  T
C319        C320   1.210       .  T
C321        C322   1.207       .  T
C323        C324   1.197       .  T
C325        C326   1.208       .  T
C327        C328   1.213       .  T
C329        C330   1.206       .  T
C331        H333   1.086       .  S
C331        C332   1.346       .  D
C332        H334   1.087       .  S
C335        H337   1.087       .  S
C335        C336   1.347       .  D
C336        H338   1.087       .  S
C339        H341   1.087       .  S
C339        C340   1.341       .  D
C340        H342   1.087       .  S
C343        H345   1.081       .  S
C343        C344   1.343       .  D
C344        H346   1.087       .  S
C347        H349   1.087       .  S
C347        C348   1.346       .  D
C348        H350   1.080       .  S
C351        H353   1.088       .  S
C351        C352   1.339       .  D
C352        H354   1.086       .  S
C355        H357   1.087       .  S
C355        C356   1.356       .  D
C356        H358   1.083       .  S
C359        H361   1.086       .  S
C359        C360   1.348       .  D
C360        H362   1.088       .  S
O363        C371   1.272       .  A
O363      Co1107   1.892       .  S
O364        C372   1.272       .  A
O364      Co1289   1.913       .  S
O365        C373   1.268       .  A
O366        C374   1.270       .  A
O367        C373   1.268       .  A
O367       Co565   1.968       .  S
O368        C374   1.263       .  A
O368       Co383   1.966       .  S
O369        C372   1.292       .  A
O369       Co567   2.092       .  S
O370        C371   1.292       .  A
O370       Co385   2.083       .  S
C371        C529   1.465       .  S
C372        C512   1.480       .  S
C373        C533   1.468       .  S
C374        C537   1.471       .  S
O375        C388   1.267       .  A
O375       Co564   2.014   1_554  S
O376        C389   1.259       .  A
O376       Co384   1.995   1_554  S
O377        C390   1.265       .  A
O377       Co566   1.973   1_565  S
O378        C391   1.278       .  A
O378       Co386   1.888       .  S
O379        C391   1.298       .  A
O379      Co1108   2.092   1_454  S
O380        C390   1.277       .  A
O380      Co1288   2.024   1_554  S
O381        C388   1.261       .  A
O382        C389   1.259       .  A
Co383      O1087   1.955   1_455  S
Co383       O556   2.003       .  S
Co383      O1285   2.105   1_455  S
Co383       O387   2.098       .  S
Co384      O1269   1.891       .  S
Co384       O548   1.977       .  S
Co384      O1103   2.107   1_556  S
Co384       O930   2.013   1_556  S
Co385       O558   1.893       .  S
Co385      O1111   1.999   1_565  S
Co386       O550   2.018   1_554  S
O387       Co927   2.096   1_565  S
O387      Co1109   1.976   1_455  S
C388        C516   1.485       .  S
C389        C521   1.470       .  S
C390        C540   1.476       .  S
C391        C524   1.474       .  S
C392        C393   1.545       .  S
C392        C398   1.543       .  S
C392        C396   1.537       .  S
C392        C513   1.519       .  S
C393        H400   1.086       .  S
C393        C394   1.366       .  D
C394        C395   1.533       .  S
C394        C509   1.444       .  S
C395        C399   1.534       .  S
C395        C397   1.534       .  S
C395        H401   1.112       .  S
C396        H402   1.086       .  S
C396        C397   1.361       .  D
C397        C510   1.441       .  S
C398        H403   1.086       .  S
C398        C399   1.368       .  D
C399        C506   1.446       .  S
C404        C405   1.539       .  S
C404        C410   1.537       .  S
C404        C408   1.536       .  S
C404        C536   1.504       .  S
C405        H412   1.086       .  S
C405        C406   1.364       .  D
C406        C407   1.533       .  S
C406        C511   1.441       .  S
C407        C411   1.533       .  S
C407        C409   1.537       .  S
C407        H413   1.112       .  S
C408        H414   1.086       .  S
C408        C409   1.364       .  D
C409        C505   1.437       .  S
C410        H415   1.087       .  S
C410        C411   1.359       .  D
C411        C502   1.439       .  S
C416        C417   1.546       .  S
C416        C422   1.544       .  S
C416        C420   1.539       .  S
C416        C517   1.523       .  S
C417        H424   1.086       .  S
C417        C418   1.369       .  D
C418        C419   1.535       .  S
C418        C500   1.453       .  S
C419        C423   1.532       .  S
C419        C421   1.536       .  S
C419        H425   1.112       .  S
C420        H426   1.087       .  S
C420        C421   1.361       .  D
C421        C498   1.447       .  S
C422        H427   1.084       .  S
C422        C423   1.367       .  D
C423        C503   1.439       .  S
C428        C429   1.554       .  S
C428        C434   1.538       .  S
C428        C432   1.529       .  S
C428        C525   1.515       .  S
C429        H436   1.083       .  S
C429        C430   1.370       .  D
C430        C431   1.532       .  S
C430        C499   1.447       .  S
C431        C435   1.538       .  S
C431        C433   1.534       .  S
C431        H437   1.112       .  S
C432        H438   1.087       .  S
C432        C433   1.356       .  D
C433        C497   1.433       .  S
C434        H439   1.086       .  S
C434        C435   1.364       .  D
C435        C507   1.447       .  S
C440        C441   1.540       .  S
C440        C446   1.529       .  S
C440        C444   1.548       .  S
C440        C532   1.508       .  S
C441        H448   1.087       .  S
C441        C442   1.362       .  D
C442        C443   1.527       .  S
C442        C494   1.436       .  S
C443        C447   1.530       .  S
C443        C445   1.535       .  S
C443        H449   1.112       .  S
C444        H450   1.083       .  S
C444        C445   1.366       .  D
C445        C508   1.444       .  S
C446        H451   1.087       .  S
C446        C447   1.357       .  D
C447        C492   1.428       .  S
C452        C453   1.542       .  S
C452        C458   1.535       .  S
C452        C456   1.545       .  S
C452        C520   1.509       .  S
C453        H460   1.086       .  S
C453        C454   1.364       .  D
C454        C455   1.523       .  S
C454        C496   1.433       .  S
C455        C459   1.525       .  S
C455        C457   1.529       .  S
C455        H461   1.113       .  S
C456        H462   1.083       .  S
C456        C457   1.363       .  D
C457        C490   1.436       .  S
C458        H463   1.087       .  S
C458        C459   1.359       .  D
C459        C493   1.428       .  S
C464        C465   1.536       .  S
C464        C470   1.544       .  S
C464        C468   1.544       .  S
C464        C541   1.516       .  S
C465        H472   1.087       .  S
C465        C466   1.359       .  D
C466        C467   1.531       .  S
C466        C491   1.436       .  S
C467        C471   1.534       .  S
C467        C469   1.537       .  S
C467        H473   1.112       .  S
C468        H474   1.086       .  S
C468        C469   1.367       .  D
C469        C501   1.453       .  S
C470        H475   1.084       .  S
C470        C471   1.365       .  D
C471        C488   1.441       .  S
C476        C477   1.541       .  S
C476        C482   1.538       .  S
C476        C480   1.532       .  S
C476        C528   1.502       .  S
C477        H484   1.087       .  S
C477        C478   1.363       .  D
C478        C479   1.531       .  S
C478        C504   1.437       .  S
C479        C483   1.535       .  S
C479        C481   1.535       .  S
C479        H485   1.112       .  S
C480        H486   1.087       .  S
C480        C481   1.358       .  D
C481        C495   1.435       .  S
C482        H487   1.086       .  S
C482        C483   1.364       .  D
C483        C489   1.440       .  S
C488        C489   1.205       .  T
C490        C491   1.202       .  T
C492        C493   1.197       .  T
C494        C495   1.202       .  T
C496        C497   1.201       .  T
C498        C499   1.209       .  T
C500        C501   1.213       .  T
C502        C503   1.204       .  T
C504        C505   1.203       .  T
C506        C507   1.209       .  T
C508        C509   1.207       .  T
C510        C511   1.205       .  T
C512        H514   1.087       .  S
C512        C513   1.342       .  D
C513        H515   1.087       .  S
C516        H518   1.083       .  S
C516        C517   1.355       .  D
C517        H519   1.088       .  S
C520        H522   1.088       .  S
C520        C521   1.343       .  D
C521        H523   1.081       .  S
C524        H526   1.082       .  S
C524        C525   1.340       .  D
C525        H527   1.088       .  S
C528        H530   1.087       .  S
C528        C529   1.337       .  D
C529        H531   1.087       .  S
C532        H534   1.088       .  S
C532        C533   1.339       .  D
C533        H535   1.082       .  S
C536        H538   1.088       .  S
C536        C537   1.343       .  D
C537        H539   1.086       .  S
C540        H542   1.082       .  S
C540        C541   1.349       .  D
C541        H543   1.088       .  S
O544        C552   1.263       .  A
O544      Co1288   1.981       .  S
O545        C553   1.254       .  A
O545      Co1108   1.966   1_455  S
O546        C554   1.277       .  A
O547        C555   1.271       .  A
O548        C554   1.270       .  A
O549        C555   1.268       .  A
O549       Co564   1.969       .  S
O550        C553   1.256       .  A
O551        C552   1.270       .  A
O551       Co566   2.023   1_566  S
C552        C710   1.489       .  S
C553        C693   1.478       .  S
C554        C714   1.473       .  S
C555        C718   1.468       .  S
O556        C569   1.267       .  A
O557        C570   1.271       .  A
O557       Co565   2.016       .  S
O558        C571   1.261       .  A
O559        C572   1.266       .  A
O559       Co567   1.902       .  S
O560        C572   1.290       .  A
O560      Co1289   2.096       .  S
O561        C571   1.292       .  A
O561      Co1107   2.106       .  S
O562        C569   1.263       .  A
O563        C570   1.259       .  A
Co564      O1268   1.978   1_455  S
Co564      O1104   2.018   1_456  S
Co564       O568   2.095   1_455  S
Co565      O1088   1.996       .  S
Co565      O1284   2.023       .  S
Co565       O749   2.050       .  S
Co566      O1292   2.011   1_545  S
O568       Co746   2.235   1_566  S
O568      Co1290   1.951   1_566  S
C569        C697   1.487       .  S
C570        C702   1.470       .  S
C571        C721   1.473       .  S
C572        C705   1.473       .  S
C573        C574   1.550       .  S
C573        C579   1.534       .  S
C573        C577   1.540       .  S
C573        C694   1.519       .  S
C574        H581   1.086       .  S
C574        C575   1.375       .  D
C575        C576   1.534       .  S
C575        C690   1.454       .  S
C576        C580   1.535       .  S
C576        C578   1.532       .  S
C576        H582   1.112       .  S
C577        H583   1.087       .  S
C577        C578   1.359       .  D
C578        C691   1.441       .  S
C579        H584   1.086       .  S
C579        C580   1.362       .  D
C580        C687   1.438       .  S
C585        C586   1.540       .  S
C585        C591   1.533       .  S
C585        C589   1.541       .  S
C585        C717   1.507       .  S
C586        H593   1.086       .  S
C586        C587   1.365       .  D
C587        C588   1.531       .  S
C587        C692   1.441       .  S
C588        C592   1.535       .  S
C588        C590   1.537       .  S
C588        H594   1.112       .  S
C589        H595   1.083       .  S
C589        C590   1.360       .  D
C590        C686   1.438       .  S
C591        H596   1.087       .  S
C591        C592   1.359       .  D
C592        C683   1.437       .  S
C597        C598   1.547       .  S
C597        C603   1.538       .  S
C597        C601   1.543       .  S
C597        C698   1.519       .  S
C598        H605   1.086       .  S
C598        C599   1.370       .  D
C599        C600   1.529       .  S
C599        C681   1.447       .  S
C600        C604   1.530       .  S
C600        C602   1.531       .  S
C600        H606   1.112       .  S
C601        H607   1.087       .  S
C601        C602   1.362       .  D
C602        C679   1.444       .  S
C603        H608   1.086       .  S
C603        C604   1.366       .  D
C604        C684   1.436       .  S
C609        C610   1.543       .  S
C609        C615   1.539       .  S
C609        C613   1.536       .  S
C609        C706   1.509       .  S
C610        H617   1.086       .  S
C610        C611   1.365       .  D
C611        C612   1.533       .  S
C611        C680   1.444       .  S
C612        C616   1.532       .  S
C612        C614   1.531       .  S
C612        H618   1.112       .  S
C613        H619   1.087       .  S
C613        C614   1.360       .  D
C614        C678   1.434       .  S
C615        H620   1.086       .  S
C615        C616   1.365       .  D
C616        C688   1.438       .  S
C621        C622   1.544       .  S
C621        C627   1.537       .  S
C621        C625   1.540       .  S
C621        C713   1.517       .  S
C622        H629   1.087       .  S
C622        C623   1.366       .  D
C623        C624   1.536       .  S
C623        C675   1.451       .  S
C624        C628   1.536       .  S
C624        C626   1.543       .  S
C624        H630   1.112       .  S
C625        H631   1.086       .  S
C625        C626   1.365       .  D
C626        C689   1.454       .  S
C627        H632   1.087       .  S
C627        C628   1.365       .  D
C628        C673   1.442       .  S
C633        C634   1.538       .  S
C633        C639   1.539       .  S
C633        C637   1.537       .  S
C633        C701   1.508       .  S
C634        H641   1.087       .  S
C634        C635   1.360       .  D
C635        C636   1.529       .  S
C635        C677   1.434       .  S
C636        C640   1.535       .  S
C636        C638   1.534       .  S
C636        H642   1.112       .  S
C637        H643   1.086       .  S
C637        C638   1.365       .  D
C638        C671   1.439       .  S
C639        H644   1.086       .  S
C639        C640   1.363       .  D
C640        C674   1.442       .  S
C645        C646   1.538       .  S
C645        C651   1.538       .  S
C645        C649   1.536       .  S
C645        C722   1.506       .  S
C646        H653   1.087       .  S
C646        C647   1.362       .  D
C647        C648   1.534       .  S
C647        C672   1.438       .  S
C648        C652   1.539       .  S
C648        C650   1.542       .  S
C648        H654   1.112       .  S
C649        H655   1.087       .  S
C649        C650   1.360       .  D
C650        C682   1.447       .  S
C651        H656   1.086       .  S
C651        C652   1.365       .  D
C652        C669   1.446       .  S
C657        C658   1.549       .  S
C657        C663   1.542       .  S
C657        C661   1.542       .  S
C657        C709   1.527       .  S
C658        H665   1.083       .  S
C658        C659   1.368       .  D
C659        C660   1.527       .  S
C659        C685   1.438       .  S
C660        C664   1.532       .  S
C660        C662   1.534       .  S
C660        H666   1.112       .  S
C661        H667   1.086       .  S
C661        C662   1.365       .  D
C662        C676   1.451       .  S
C663        H668   1.086       .  S
C663        C664   1.365       .  D
C664        C670   1.446       .  S
C669        C670   1.208       .  T
C671        C672   1.204       .  T
C673        C674   1.206       .  T
C675        C676   1.211       .  T
C677        C678   1.201       .  T
C679        C680   1.207       .  T
C681        C682   1.209       .  T
C683        C684   1.203       .  T
C685        C686   1.204       .  T
C687        C688   1.204       .  T
C689        C690   1.213       .  T
C691        C692   1.205       .  T
C693        H695   1.086       .  S
C693        C694   1.346       .  D
C694        H696   1.088       .  S
C697        H699   1.086       .  S
C697        C698   1.352       .  D
C698        H700   1.087       .  S
C701        H703   1.087       .  S
C701        C702   1.342       .  D
C702        H704   1.087       .  S
C705        H707   1.087       .  S
C705        C706   1.341       .  D
C706        H708   1.087       .  S
C709        H711   1.087       .  S
C709        C710   1.353       .  D
C710        H712   1.082       .  S
C713        H715   1.088       .  S
C713        C714   1.347       .  D
C714        H716   1.086       .  S
C717        H719   1.088       .  S
C717        C718   1.345       .  D
C718        H720   1.081       .  S
C721        H723   1.087       .  S
C721        C722   1.345       .  D
C722        H724   1.087       .  S
O725        C733   1.268       .  A
O726        C734   1.265       .  A
O727        C735   1.274       .  A
O727      Co1109   2.035   1_545  S
O728        C736   1.291       .  A
O728      Co1291   2.089       .  S
O729        C735   1.256       .  A
O729       Co927   1.955   1_655  S
O730        C736   1.267       .  A
O730       Co745   1.878       .  S
O731        C734   1.272       .  A
O731       Co929   2.007       .  S
O732        C733   1.274       .  A
O732       Co747   2.017       .  S
C733        C891   1.475       .  S
C734        C874   1.455       .  S
C735        C895   1.479       .  S
C736        C899   1.460       .  S
O737        C750   1.278       .  A
O737       Co926   2.018   1_554  S
O738        C751   1.294       .  A
O738       Co746   2.073       .  S
O739        C752   1.275       .  A
O739       Co928   1.876       .  S
O740        C753   1.256       .  A
O740       Co748   1.961       .  S
O741        C753   1.257       .  A
O742        C752   1.303       .  A
O743        C750   1.264       .  A
O743      Co1110   1.963       .  S
O744        C751   1.266       .  A
O744      Co1290   1.885       .  S
Co745       O918   2.114       .  S
Co745       O749   2.017       .  S
Co746       O910   1.970   1_554  S
Co747      O1089   2.036       .  S
Co747       O920   1.966       .  S
Co747      O1287   1.971       .  S
Co748      O1271   2.011   1_544  S
Co748       O912   2.039   1_554  S
Co748      O1105   1.958   1_545  S
Co748      O1292   2.025   1_545  S
O749      Co1291   1.996       .  S
C750        C878   1.469       .  S
C751        C883   1.468       .  S
C752        C902   1.476       .  S
C753        C886   1.461       .  S
C754        C755   1.539       .  S
C754        C760   1.533       .  S
C754        C758   1.537       .  S
C754        C875   1.495       .  S
C755        H762   1.086       .  S
C755        C756   1.362       .  D
C756        C757   1.526       .  S
C756        C871   1.428       .  S
C757        C761   1.527       .  S
C757        C759   1.523       .  S
C757        H763   1.113       .  S
C758        H764   1.086       .  S
C758        C759   1.361       .  D
C759        C872   1.428       .  S
C760        H765   1.086       .  S
C760        C761   1.360       .  D
C761        C868   1.426       .  S
C766        C767   1.530       .  S
C766        C772   1.533       .  S
C766        C770   1.538       .  S
C766        C898   1.492       .  S
C767        H774   1.087       .  S
C767        C768   1.356       .  D
C768        C769   1.530       .  S
C768        C873   1.428       .  S
C769        C773   1.533       .  S
C769        C771   1.535       .  S
C769        H775   1.112       .  S
C770        H776   1.086       .  S
C770        C771   1.365       .  D
C771        C867   1.439       .  S
C772        H777   1.087       .  S
C772        C773   1.359       .  D
C773        C864   1.430       .  S
C778        C779   1.546       .  S
C778        C784   1.537       .  S
C778        C782   1.533       .  S
C778        C879   1.503       .  S
C779        H786   1.086       .  S
C779        C780   1.368       .  D
C780        C781   1.528       .  S
C780        C862   1.443       .  S
C781        C785   1.529       .  S
C781        C783   1.528       .  S
C781        H787   1.112       .  S
C782        H788   1.087       .  S
C782        C783   1.357       .  D
C783        C860   1.430       .  S
C784        H789   1.086       .  S
C784        C785   1.362       .  D
C785        C865   1.429       .  S
C790        C791   1.542       .  S
C790        C796   1.532       .  S
C790        C794   1.539       .  S
C790        C887   1.500       .  S
C791        H798   1.083       .  S
C791        C792   1.361       .  D
C792        C793   1.528       .  S
C792        C861   1.430       .  S
C793        C797   1.528       .  S
C793        C795   1.527       .  S
C793        H799   1.112       .  S
C794        H800   1.086       .  S
C794        C795   1.364       .  D
C795        C859   1.433       .  S
C796        H801   1.087       .  S
C796        C797   1.356       .  D
C797        C869   1.426       .  S
C802        C803   1.545       .  S
C802        C808   1.545       .  S
C802        C806   1.536       .  S
C802        C894   1.519       .  S
C803        H810   1.086       .  S
C803        C804   1.368       .  D
C804        C805   1.532       .  S
C804        C856   1.448       .  S
C805        C809   1.530       .  S
C805        C807   1.531       .  S
C805        H811   1.112       .  S
C806        H812   1.082       .  S
C806        C807   1.356       .  D
C807        C870   1.428       .  S
C808        H813   1.086       .  S
C808        C809   1.367       .  D
C809        C854   1.446       .  S
C814        C815   1.535       .  S
C814        C820   1.535       .  S
C814        C818   1.542       .  S
C814        C882   1.506       .  S
C815        H822   1.087       .  S
C815        C816   1.358       .  D
C816        C817   1.534       .  S
C816        C858   1.434       .  S
C817        C821   1.540       .  S
C817        C819   1.536       .  S
C817        H823   1.112       .  S
C818        H824   1.087       .  S
C818        C819   1.366       .  D
C819        C852   1.446       .  S
C820        H825   1.086       .  S
C820        C821   1.362       .  D
C821        C855   1.445       .  S
C826        C827   1.549       .  S
C826        C832   1.538       .  S
C826        C830   1.534       .  S
C826        C903   1.516       .  S
C827        H834   1.083       .  S
C827        C828   1.366       .  D
C828        C829   1.534       .  S
C828        C853   1.446       .  S
C829        C833   1.534       .  S
C829        C831   1.539       .  S
C829        H835   1.112       .  S
C830        H836   1.087       .  S
C830        C831   1.360       .  D
C831        C863   1.443       .  S
C832        H837   1.087       .  S
C832        C833   1.363       .  D
C833        C850   1.442       .  S
C838        C839   1.548       .  S
C838        C844   1.537       .  S
C838        C842   1.540       .  S
C838        C890   1.520       .  S
C839        H846   1.083       .  S
C839        C840   1.363       .  D
C840        C841   1.531       .  S
C840        C866   1.439       .  S
C841        C845   1.534       .  S
C841        C843   1.536       .  S
C841        H847   1.112       .  S
C842        H848   1.087       .  S
C842        C843   1.363       .  D
C843        C857   1.448       .  S
C844        H849   1.086       .  S
C844        C845   1.364       .  D
C845        C851   1.442       .  S
C850        C851   1.206       .  T
C852        C853   1.208       .  T
C854        C855   1.208       .  T
C856        C857   1.210       .  T
C858        C859   1.201       .  T
C860        C861   1.199       .  T
C862        C863   1.207       .  T
C864        C865   1.198       .  T
C866        C867   1.204       .  T
C868        C869   1.196       .  T
C870        C871   1.198       .  T
C872        C873   1.197       .  T
C874        H876   1.086       .  S
C874        C875   1.338       .  D
C875        H877   1.088       .  S
C878        H880   1.087       .  S
C878        C879   1.340       .  D
C879        H881   1.087       .  S
C882        H884   1.087       .  S
C882        C883   1.347       .  D
C883        H885   1.086       .  S
C886        H888   1.081       .  S
C886        C887   1.342       .  D
C887        H889   1.088       .  S
C890        H892   1.087       .  S
C890        C891   1.347       .  D
C891        H893   1.081       .  S
C894        H896   1.087       .  S
C894        C895   1.358       .  D
C895        H897   1.080       .  S
C898        H900   1.088       .  S
C898        C899   1.336       .  D
C899        H901   1.087       .  S
C902        H904   1.081       .  S
C902        C903   1.345       .  D
C903        H905   1.087       .  S
O906        C914   1.249       .  A
O907        C915   1.271       .  A
O908        C916   1.250       .  A
O908      Co1290   1.978   1_556  S
O909        C917   1.262       .  A
O909      Co1110   2.008   1_556  S
O910        C916   1.252       .  A
O911        C917   1.260       .  A
O911       Co926   1.979       .  S
O912        C915   1.282       .  A
O913        C914   1.254       .  A
O913       Co928   2.013   1_556  S
C914       C1072   1.473       .  S
C915       C1055   1.484       .  S
C916       C1076   1.471       .  S
C917       C1080   1.481       .  S
O918        C931   1.297       .  A
O919        C932   1.267       .  A
O919       Co927   2.006   1_655  S
O920        C933   1.259       .  A
O921        C934   1.258       .  A
O921       Co929   1.960       .  S
O922        C934   1.264       .  A
O923        C933   1.266       .  A
O924        C931   1.262       .  A
O924      Co1291   1.890       .  S
O925        C932   1.261       .  A
O925      Co1109   1.976   1_545  S
Co926       O930   2.039   1_556  S
Co928      O1270   2.037   1_554  S
Co928      O1106   1.967       .  S
Co929      O1090   2.037   1_545  S
Co929      O1286   1.955   1_545  S
Co929      O1111   2.022       .  S
O930      Co1110   2.008       .  S
C931       C1059   1.474       .  S
C932       C1064   1.481       .  S
C933       C1083   1.460       .  S
C934       C1067   1.465       .  S
C935        C936   1.540       .  S
C935        C941   1.544       .  S
C935        C939   1.550       .  S
C935       C1056   1.528       .  S
C936        H943   1.087       .  S
C936        C937   1.363       .  D
C937        C938   1.532       .  S
C937       C1052   1.442       .  S
C938        C942   1.531       .  S
C938        C940   1.534       .  S
C938        H944   1.112       .  S
C939        H945   1.086       .  S
C939        C940   1.371       .  D
C940       C1053   1.458       .  S
C941        H946   1.083       .  S
C941        C942   1.364       .  D
C942       C1049   1.439       .  S
C947        C948   1.544       .  S
C947        C953   1.535       .  S
C947        C951   1.548       .  S
C947       C1079   1.524       .  S
C948        H955   1.086       .  S
C948        C949   1.368       .  D
C949        C950   1.541       .  S
C949       C1054   1.458       .  S
C950        C954   1.537       .  S
C950        C952   1.538       .  S
C950        H956   1.112       .  S
C951        H957   1.083       .  S
C951        C952   1.365       .  D
C952       C1048   1.449       .  S
C953        H958   1.087       .  S
C953        C954   1.361       .  D
C954       C1045   1.444       .  S
C959        C960   1.542       .  S
C959        C965   1.541       .  S
C959        C963   1.541       .  S
C959       C1060   1.516       .  S
C960        H967   1.086       .  S
C960        C961   1.362       .  D
C961        C962   1.530       .  S
C961       C1043   1.438       .  S
C962        C966   1.531       .  S
C962        C964   1.528       .  S
C962        H968   1.112       .  S
C963        H969   1.086       .  S
C963        C964   1.365       .  D
C964       C1041   1.436       .  S
C965        H970   1.086       .  S
C965        C966   1.367       .  D
C966       C1046   1.443       .  S
C971        C972   1.543       .  S
C971        C977   1.533       .  S
C971        C975   1.540       .  S
C971       C1068   1.512       .  S
C972        H979   1.082       .  S
C972        C973   1.358       .  D
C973        C974   1.534       .  S
C973       C1042   1.437       .  S
C974        C978   1.535       .  S
C974        C976   1.539       .  S
C974        H980   1.112       .  S
C975        H981   1.087       .  S
C975        C976   1.364       .  D
C976       C1040   1.447       .  S
C977        H982   1.087       .  S
C977        C978   1.361       .  D
C978       C1050   1.438       .  S
C983        C984   1.539       .  S
C983        C989   1.533       .  S
C983        C987   1.541       .  S
C983       C1075   1.506       .  S
C984        H991   1.086       .  S
C984        C985   1.363       .  D
C985        C986   1.533       .  S
C985       C1037   1.441       .  S
C986        C990   1.536       .  S
C986        C988   1.534       .  S
C986        H992   1.112       .  S
C987        H993   1.086       .  S
C987        C988   1.365       .  D
C988       C1051   1.442       .  S
C989        H994   1.087       .  S
C989        C990   1.360       .  D
C990       C1035   1.435       .  S
C995        C996   1.546       .  S
C995       C1001   1.542       .  S
C995        C999   1.540       .  S
C995       C1063   1.517       .  S
C996       H1003   1.086       .  S
C996        C997   1.368       .  D
C997        C998   1.530       .  S
C997       C1039   1.447       .  S
C998       C1002   1.531       .  S
C998       C1000   1.530       .  S
C998       H1004   1.112       .  S
C999       H1005   1.087       .  S
C999       C1000   1.361       .  D
C1000      C1033   1.441       .  S
C1001      H1006   1.084       .  S
C1001      C1002   1.365       .  D
C1002      C1036   1.435       .  S
C1007      C1008   1.536       .  S
C1007      C1013   1.536       .  S
C1007      C1011   1.539       .  S
C1007      C1084   1.502       .  S
C1008      H1015   1.086       .  S
C1008      C1009   1.364       .  D
C1009      C1010   1.535       .  S
C1009      C1034   1.440       .  S
C1010      C1014   1.531       .  S
C1010      C1012   1.532       .  S
C1010      H1016   1.112       .  S
C1011      H1017   1.087       .  S
C1011      C1012   1.362       .  D
C1012      C1044   1.438       .  S
C1013      H1018   1.087       .  S
C1013      C1014   1.361       .  D
C1014      C1031   1.433       .  S
C1019      C1020   1.545       .  S
C1019      C1025   1.532       .  S
C1019      C1023   1.542       .  S
C1019      C1071   1.511       .  S
C1020      H1027   1.086       .  S
C1020      C1021   1.371       .  D
C1021      C1022   1.535       .  S
C1021      C1047   1.448       .  S
C1022      C1026   1.533       .  S
C1022      C1024   1.530       .  S
C1022      H1028   1.112       .  S
C1023      H1029   1.087       .  S
C1023      C1024   1.360       .  D
C1024      C1038   1.441       .  S
C1025      H1030   1.087       .  S
C1025      C1026   1.361       .  D
C1026      C1032   1.433       .  S
C1031      C1032   1.201       .  T
C1033      C1034   1.205       .  T
C1035      C1036   1.202       .  T
C1037      C1038   1.205       .  T
C1039      C1040   1.209       .  T
C1041      C1042   1.203       .  T
C1043      C1044   1.204       .  T
C1045      C1046   1.207       .  T
C1047      C1048   1.210       .  T
C1049      C1050   1.204       .  T
C1051      C1052   1.206       .  T
C1053      C1054   1.216       .  T
C1055      H1057   1.082       .  S
C1055      C1056   1.356       .  D
C1056      H1058   1.088       .  S
C1059      H1061   1.087       .  S
C1059      C1060   1.343       .  D
C1060      H1062   1.087       .  S
C1063      H1065   1.088       .  S
C1063      C1064   1.354       .  D
C1064      H1066   1.083       .  S
C1067      H1069   1.080       .  S
C1067      C1068   1.346       .  D
C1068      H1070   1.088       .  S
C1071      H1073   1.088       .  S
C1071      C1072   1.346       .  D
C1072      H1074   1.086       .  S
C1075      H1077   1.087       .  S
C1075      C1076   1.344       .  D
C1076      H1078   1.087       .  S
C1079      H1081   1.087       .  S
C1079      C1080   1.350       .  D
C1080      H1082   1.081       .  S
C1083      H1085   1.086       .  S
C1083      C1084   1.341       .  D
C1084      H1086   1.089       .  S
O1087      C1095   1.251       .  A
O1088      C1096   1.265       .  A
O1089      C1097   1.279       .  A
O1090      C1098   1.277       .  A
O1091      C1097   1.269       .  A
O1091     Co1289   1.968   1_655  S
O1092      C1098   1.270       .  A
O1092     Co1107   1.989       .  S
O1093      C1096   1.263       .  A
O1093     Co1291   2.004       .  S
O1094      C1095   1.256       .  A
O1094     Co1109   2.018       .  S
C1095      C1253   1.474       .  S
C1096      C1236   1.487       .  S
C1097      C1257   1.475       .  S
C1098      C1261   1.491       .  S
O1099      C1112   1.276       .  A
O1099     Co1288   2.041   1_554  S
O1100      C1113   1.271       .  A
O1100     Co1108   2.015   1_554  S
O1101      C1114   1.260       .  A
O1101     Co1290   1.982   1_565  S
O1102      C1115   1.265       .  A
O1102     Co1110   1.899       .  S
O1103      C1115   1.292       .  A
O1104      C1114   1.266       .  A
O1105      C1112   1.258       .  A
O1106      C1113   1.260       .  A
Co1107     O1280   2.013       .  S
Co1107     O1111   2.023   1_565  S
Co1108     O1272   1.966       .  S
Co1109     O1282   1.871       .  S
Co1110     O1274   2.094   1_554  S
C1112      C1240   1.480       .  S
C1113      C1245   1.483       .  S
C1114      C1264   1.484       .  S
C1115      C1248   1.479       .  S
C1116      C1117   1.554       .  S
C1116      C1122   1.537       .  S
C1116      C1120   1.544       .  S
C1116      C1237   1.531       .  S
C1117      H1124   1.083       .  S
C1117      C1118   1.369       .  D
C1118      C1119   1.533       .  S
C1118      C1233   1.450       .  S
C1119      C1123   1.534       .  S
C1119      C1121   1.536       .  S
C1119      H1125   1.112       .  S
C1120      H1126   1.086       .  S
C1120      C1121   1.367       .  D
C1121      C1234   1.453       .  S
C1122      H1127   1.087       .  S
C1122      C1123   1.362       .  D
C1123      C1230   1.443       .  S
C1128      C1129   1.546       .  S
C1128      C1134   1.544       .  S
C1128      C1132   1.544       .  S
C1128      C1260   1.533       .  S
C1129      H1136   1.086       .  S
C1129      C1130   1.365       .  D
C1130      C1131   1.535       .  S
C1130      C1235   1.453       .  S
C1131      C1135   1.536       .  S
C1131      C1133   1.539       .  S
C1131      H1137   1.112       .  S
C1132      H1138   1.086       .  S
C1132      C1133   1.369       .  D
C1133      C1229   1.454       .  S
C1134      H1139   1.086       .  S
C1134      C1135   1.371       .  D
C1135      C1226   1.451       .  S
C1140      C1141   1.544       .  S
C1140      C1146   1.540       .  S
C1140      C1144   1.536       .  S
C1140      C1241   1.520       .  S
C1141      H1148   1.086       .  S
C1141      C1142   1.367       .  D
C1142      C1143   1.540       .  S
C1142      C1224   1.454       .  S
C1143      C1147   1.542       .  S
C1143      C1145   1.540       .  S
C1143      H1149   1.112       .  S
C1144      H1150   1.087       .  S
C1144      C1145   1.363       .  D
C1145      C1222   1.445       .  S
C1146      H1151   1.086       .  S
C1146      C1147   1.364       .  D
C1147      C1227   1.452       .  S
C1152      C1153   1.542       .  S
C1152      C1158   1.539       .  S
C1152      C1156   1.536       .  S
C1152      C1249   1.512       .  S
C1153      H1160   1.086       .  S
C1153      C1154   1.367       .  D
C1154      C1155   1.534       .  S
C1154      C1223   1.445       .  S
C1155      C1159   1.535       .  S
C1155      C1157   1.537       .  S
C1155      H1161   1.112       .  S
C1156      H1162   1.087       .  S
C1156      C1157   1.358       .  D
C1157      C1221   1.442       .  S
C1158      H1163   1.086       .  S
C1158      C1159   1.366       .  D
C1159      C1231   1.443       .  S
C1164      C1165   1.546       .  S
C1164      C1170   1.536       .  S
C1164      C1168   1.540       .  S
C1164      C1256   1.518       .  S
C1165      H1172   1.086       .  S
C1165      C1166   1.367       .  D
C1166      C1167   1.535       .  S
C1166      C1218   1.452       .  S
C1167      C1171   1.538       .  S
C1167      C1169   1.540       .  S
C1167      H1173   1.112       .  S
C1168      H1174   1.086       .  S
C1168      C1169   1.366       .  D
C1169      C1232   1.450       .  S
C1170      H1175   1.087       .  S
C1170      C1171   1.362       .  D
C1171      C1216   1.442       .  S
C1176      C1177   1.545       .  S
C1176      C1182   1.540       .  S
C1176      C1180   1.538       .  S
C1176      C1244   1.516       .  S
C1177      H1184   1.086       .  S
C1177      C1178   1.368       .  D
C1178      C1179   1.528       .  S
C1178      C1220   1.442       .  S
C1179      C1183   1.533       .  S
C1179      C1181   1.531       .  S
C1179      H1185   1.112       .  S
C1180      H1186   1.087       .  S
C1180      C1181   1.359       .  D
C1181      C1214   1.441       .  S
C1182      H1187   1.086       .  S
C1182      C1183   1.368       .  D
C1183      C1217   1.441       .  S
C1188      C1189   1.540       .  S
C1188      C1194   1.545       .  S
C1188      C1192   1.548       .  S
C1188      C1265   1.526       .  S
C1189      H1196   1.087       .  S
C1189      C1190   1.362       .  D
C1190      C1191   1.529       .  S
C1190      C1215   1.441       .  S
C1191      C1195   1.527       .  S
C1191      C1193   1.532       .  S
C1191      H1197   1.112       .  S
C1192      H1198   1.086       .  S
C1192      C1193   1.370       .  D
C1193      C1225   1.453       .  S
C1194      H1199   1.084       .  S
C1194      C1195   1.365       .  D
C1195      C1212   1.434       .  S
C1200      C1201   1.546       .  S
C1200      C1206   1.529       .  S
C1200      C1204   1.543       .  S
C1200      C1252   1.514       .  S
C1201      H1208   1.086       .  S
C1201      C1202   1.371       .  D
C1202      C1203   1.538       .  S
C1202      C1228   1.453       .  S
C1203      C1207   1.538       .  S
C1203      C1205   1.538       .  S
C1203      H1209   1.112       .  S
C1204      H1210   1.087       .  S
C1204      C1205   1.364       .  D
C1205      C1219   1.452       .  S
C1206      H1211   1.087       .  S
C1206      C1207   1.358       .  D
C1207      C1213   1.434       .  S
C1212      C1213   1.201       .  T
C1214      C1215   1.205       .  T
C1216      C1217   1.206       .  T
C1218      C1219   1.212       .  T
C1220      C1221   1.206       .  T
C1222      C1223   1.208       .  T
C1224      C1225   1.213       .  T
C1226      C1227   1.212       .  T
C1228      C1229   1.213       .  T
C1230      C1231   1.206       .  T
C1232      C1233   1.211       .  T
C1234      C1235   1.213       .  T
C1236      H1238   1.081       .  S
C1236      C1237   1.349       .  D
C1237      H1239   1.087       .  S
C1240      H1242   1.087       .  S
C1240      C1241   1.343       .  D
C1241      H1243   1.087       .  S
C1244      H1246   1.087       .  S
C1244      C1245   1.346       .  D
C1245      H1247   1.086       .  S
C1248      H1250   1.086       .  S
C1248      C1249   1.344       .  D
C1249      H1251   1.087       .  S
C1252      H1254   1.088       .  S
C1252      C1253   1.349       .  D
C1253      H1255   1.086       .  S
C1256      H1258   1.087       .  S
C1256      C1257   1.348       .  D
C1257      H1259   1.086       .  S
C1260      H1262   1.087       .  S
C1260      C1261   1.352       .  D
C1261      H1263   1.085       .  S
C1264      H1266   1.082       .  S
C1264      C1265   1.355       .  D
C1265      H1267   1.088       .  S
O1268      C1276   1.267       .  A
O1269      C1277   1.266       .  A
O1270      C1278   1.275       .  A
O1271      C1279   1.269       .  A
O1272      C1278   1.261       .  A
O1273      C1279   1.262       .  A
O1273     Co1288   1.963       .  S
O1274      C1277   1.292       .  A
O1275      C1276   1.272       .  A
O1275     Co1290   2.014   1_566  S
C1276      C1434   1.476       .  S
C1277      C1417   1.472       .  S
C1278      C1438   1.488       .  S
C1279      C1442   1.465       .  S
O1280      C1293   1.265       .  A
O1281      C1294   1.268       .  A
O1281     Co1289   2.025   1_655  S
O1282      C1295   1.275       .  A
O1283      C1296   1.264       .  A
O1283     Co1291   1.959       .  S
O1284      C1296   1.276       .  A
O1285      C1295   1.302       .  A
O1286      C1293   1.252       .  A
O1287      C1294   1.254       .  A
Co1288     O1292   2.036   1_556  S
C1293      C1421   1.461       .  S
C1294      C1426   1.472       .  S
C1295      C1445   1.472       .  S
C1296      C1429   1.464       .  S
C1297      C1298   1.542       .  S
C1297      C1303   1.537       .  S
C1297      C1301   1.534       .  S
C1297      C1418   1.505       .  S
C1298      H1305   1.086       .  S
C1298      C1299   1.366       .  D
C1299      C1300   1.533       .  S
C1299      C1414   1.441       .  S
C1300      C1304   1.535       .  S
C1300      C1302   1.535       .  S
C1300      H1306   1.112       .  S
C1301      H1307   1.087       .  S
C1301      C1302   1.357       .  D
C1302      C1415   1.438       .  S
C1303      H1308   1.087       .  S
C1303      C1304   1.364       .  D
C1304      C1411   1.440       .  S
C1309      C1310   1.542       .  S
C1309      C1315   1.534       .  S
C1309      C1313   1.537       .  S
C1309      C1441   1.504       .  S
C1310      H1317   1.086       .  S
C1310      C1311   1.365       .  D
C1311      C1312   1.527       .  S
C1311      C1416   1.437       .  S
C1312      C1316   1.533       .  S
C1312      C1314   1.535       .  S
C1312      H1318   1.112       .  S
C1313      H1319   1.087       .  S
C1313      C1314   1.361       .  D
C1314      C1410   1.437       .  S
C1315      H1320   1.086       .  S
C1315      C1316   1.360       .  D
C1316      C1407   1.434       .  S
C1321      C1322   1.543       .  S
C1321      C1327   1.542       .  S
C1321      C1325   1.531       .  S
C1321      C1422   1.506       .  S
C1322      H1329   1.086       .  S
C1322      C1323   1.363       .  D
C1323      C1324   1.526       .  S
C1323      C1405   1.436       .  S
C1324      C1328   1.528       .  S
C1324      C1326   1.533       .  S
C1324      H1330   1.112       .  S
C1325      H1331   1.086       .  S
C1325      C1326   1.362       .  D
C1326      C1403   1.429       .  S
C1327      H1332   1.086       .  S
C1327      C1328   1.361       .  D
C1328      C1408   1.434       .  S
C1333      C1334   1.537       .  S
C1333      C1339   1.536       .  S
C1333      C1337   1.545       .  S
C1333      C1430   1.509       .  S
C1334      H1341   1.087       .  S
C1334      C1335   1.357       .  D
C1335      C1336   1.528       .  S
C1335      C1404   1.429       .  S
C1336      C1340   1.534       .  S
C1336      C1338   1.534       .  S
C1336      H1342   1.112       .  S
C1337      H1343   1.086       .  S
C1337      C1338   1.368       .  D
C1338      C1402   1.447       .  S
C1339      H1344   1.086       .  S
C1339      C1340   1.363       .  D
C1340      C1412   1.440       .  S
C1345      C1346   1.541       .  S
C1345      C1351   1.543       .  S
C1345      C1349   1.542       .  S
C1345      C1437   1.521       .  S
C1346      H1353   1.086       .  S
C1346      C1347   1.364       .  D
C1347      C1348   1.533       .  S
C1347      C1399   1.445       .  S
C1348      C1352   1.535       .  S
C1348      C1350   1.537       .  S
C1348      H1354   1.112       .  S
C1349      H1355   1.084       .  S
C1349      C1350   1.365       .  D
C1350      C1413   1.442       .  S
C1351      H1356   1.086       .  S
C1351      C1352   1.365       .  D
C1352      C1397   1.450       .  S
C1357      C1358   1.542       .  S
C1357      C1363   1.552       .  S
C1357      C1361   1.532       .  S
C1357      C1425   1.522       .  S
C1358      H1365   1.086       .  S
C1358      C1359   1.365       .  D
C1359      C1360   1.535       .  S
C1359      C1401   1.447       .  S
C1360      C1364   1.534       .  S
C1360      C1362   1.539       .  S
C1360      H1366   1.112       .  S
C1361      H1367   1.087       .  S
C1361      C1362   1.360       .  D
C1362      C1395   1.441       .  S
C1363      H1368   1.083       .  S
C1363      C1364   1.367       .  D
C1364      C1398   1.449       .  S
C1369      C1370   1.551       .  S
C1369      C1375   1.534       .  S
C1369      C1373   1.533       .  S
C1369      C1446   1.509       .  S
C1370      H1377   1.083       .  S
C1370      C1371   1.367       .  D
C1371      C1372   1.529       .  S
C1371      C1396   1.441       .  S
C1372      C1376   1.534       .  S
C1372      C1374   1.535       .  S
C1372      H1378   1.112       .  S
C1373      H1379   1.087       .  S
C1373      C1374   1.360       .  D
C1374      C1406   1.436       .  S
C1375      H1380   1.087       .  S
C1375      C1376   1.359       .  D
C1376      C1393   1.438       .  S
C1381      C1382   1.549       .  S
C1381      C1387   1.540       .  S
C1381      C1385   1.539       .  S
C1381      C1433   1.519       .  S
C1382      H1389   1.083       .  S
C1382      C1383   1.364       .  D
C1383      C1384   1.527       .  S
C1383      C1409   1.437       .  S
C1384      C1388   1.529       .  S
C1384      C1386   1.533       .  S
C1384      H1390   1.112       .  S
C1385      H1391   1.086       .  S
C1385      C1386   1.363       .  D
C1386      C1400   1.445       .  S
C1387      H1392   1.087       .  S
C1387      C1388   1.365       .  D
C1388      C1394   1.438       .  S
C1393      C1394   1.204       .  T
C1395      C1396   1.205       .  T
C1397      C1398   1.210       .  T
C1399      C1400   1.208       .  T
C1401      C1402   1.209       .  T
C1403      C1404   1.198       .  T
C1405      C1406   1.202       .  T
C1407      C1408   1.201       .  T
C1409      C1410   1.203       .  T
C1411      C1412   1.205       .  T
C1413      C1414   1.206       .  T
C1415      C1416   1.203       .  T
C1417      H1419   1.086       .  S
C1417      C1418   1.341       .  D
C1418      H1420   1.087       .  S
C1421      H1423   1.088       .  S
C1421      C1422   1.337       .  D
C1422      H1424   1.087       .  S
C1425      H1427   1.088       .  S
C1425      C1426   1.343       .  D
C1426      H1428   1.081       .  S
C1429      H1431   1.086       .  S
C1429      C1430   1.348       .  D
C1430      H1432   1.088       .  S
C1433      H1435   1.087       .  S
C1433      C1434   1.347       .  D
C1434      H1436   1.081       .  S
C1437      H1439   1.087       .  S
C1437      C1438   1.356       .  D
C1438      H1440   1.082       .  S
C1441      H1443   1.087       .  S
C1441      C1442   1.339       .  D
C1442      H1444   1.087       .  S
C1445      H1447   1.082       .  S
C1445      C1446   1.342       .  D
C1446      H1448   1.088       .  S
