geometry optimzed in LAMMPS
_audit_creation_date              2020-12-01 
_audit_creation_method            'lammps2cif' 
_symmetry_space_group_name_H-M    'P1' 
_symmetry_Int_Tables_number       1 
_symmetry_cell_setting            triclinic 
loop_ 
_symmetry_equiv_pos_as_xyz 
  x,y,z 
_cell_length_a                    30.09070381 
_cell_length_b                    29.66772477383878 
_cell_length_c                    30.0378085467173 
_cell_angle_alpha                 89.99997008337294 
_cell_angle_beta                  90.0252060508563 
_cell_angle_gamma                 90.028937554494 
loop_ 
_atom_site_label 
_atom_site_type_symbol 
_atom_site_fract_x 
_atom_site_fract_y 
_atom_site_fract_z 
_atom_site_charge 
O1          O  0.56074888  0.46655248  0.61288424    -0.72200
O2          O  0.45514818  0.52948780  0.62050385    -0.72400
O3          O  0.53895108  0.55177346  0.61541542    -0.72300
O4          O  0.47694957  0.44429827  0.61818850    -0.72300
O5          O  0.46407444  0.45320903  0.68841002    -0.72200
O6          O  0.56102721  0.54149049  0.68308178    -0.72200
O7          O  0.46934117  0.54655438  0.68899969    -0.72200
O8          O  0.55563548  0.44802439  0.68228437    -0.72400
V9          V  0.50805409  0.49802204  0.61803978     1.35200
V10         V  0.51254915  0.49730637  0.68599981     1.35200
C11         C  0.57317637  0.44147744  0.64412613     0.77100
C12         C  0.44684808  0.55380071  0.65364672     0.77100
C13         C  0.56512023  0.56253417  0.64620412     0.77000
C14         C  0.45502195  0.43303466  0.65194112     0.76900
O15         O  0.63406132  0.47180778  0.53496190    -0.72200
O16         O  0.62410809  0.53312297  0.42782040    -0.72400
O17         O  0.62883285  0.44801076  0.45137922    -0.72300
O18         O  0.62879332  0.55670137  0.51141857    -0.72300
O19         O  0.69878242  0.54869585  0.52567499    -0.72200
O20         O  0.69549490  0.46158633  0.42795335    -0.72200
O21         O  0.69264985  0.55438529  0.43411587    -0.72200
O22         O  0.70216623  0.45516946  0.51915396    -0.72400
V23         V  0.63007650  0.50243494  0.48134733     1.35200
V24         V  0.69773747  0.50502283  0.47677930     1.35200
C25         C  0.66724293  0.44703840  0.54184218     0.77100
C26         C  0.65466255  0.55936892  0.41584010     0.77100
C27         C  0.65934993  0.43930482  0.42428568     0.77000
C28         C  0.66191590  0.56838069  0.53398062     0.76900
O29         O  0.46287015  0.63067852  0.43698262    -0.72200
O30         O  0.52782600  0.63333622  0.54177045    -0.72400
O31         O  0.44315044  0.63021517  0.52194471    -0.72300
O32         O  0.54760882  0.63346107  0.45703029    -0.72300
O33         O  0.53361779  0.70248202  0.43843878    -0.72200
O34         O  0.45305568  0.69988258  0.54056033    -0.72200
O35         O  0.54416773  0.70323492  0.52951492    -0.72200
O36         O  0.44232700  0.69950968  0.44884843    -0.72400
V37         V  0.49531413  0.63301968  0.48942172     1.35200
V38         V  0.49317540  0.70177161  0.48931270     1.35200
C39         C  0.43646871  0.66228422  0.42832251     0.77100
C40         C  0.55255473  0.66648286  0.54988435     0.77100
C41         C  0.43410488  0.66206745  0.54791658     0.77000
C42         C  0.55534389  0.66614630  0.43165908     0.76900
O43         O  0.36798520  0.46684215  0.44316774    -0.72200
O44         O  0.37175652  0.52570379  0.55190945    -0.72400
O45         O  0.37326448  0.44140926  0.52649967    -0.72300
O46         O  0.36654851  0.55129743  0.46864442    -0.72300
O47         O  0.29733302  0.53838968  0.45368760    -0.72200
O48         O  0.30567729  0.44962457  0.54944675    -0.72200
O49         O  0.30225020  0.54282039  0.54525915    -0.72200
O50         O  0.30061539  0.44563545  0.45725021    -0.72400
V51         V  0.36875637  0.49627807  0.49764371     1.35200
V52         V  0.30102631  0.49402089  0.50146965     1.35200
C53         C  0.33601503  0.44116293  0.43418302     0.77100
C54         C  0.33976998  0.55009890  0.56375103     0.77100
C55         C  0.34323936  0.42994922  0.55320276     0.77000
C56         C  0.33281976  0.56057783  0.44581132     0.76900
O57         O  0.52793149  0.36902894  0.43046332    -0.72200
O58         O  0.47592191  0.36417811  0.54229137    -0.72400
O59         O  0.55758126  0.36768441  0.51248458    -0.72300
O60         O  0.44605171  0.36566212  0.46055603    -0.72300
O61         O  0.45751815  0.29710474  0.43896540    -0.72200
O62         O  0.55000366  0.29760520  0.53064311    -0.72200
O63         O  0.45788722  0.29461691  0.53093054    -0.72200
O64         O  0.54943568  0.29992828  0.43833272    -0.72400
V65         V  0.50188256  0.36552078  0.48641286     1.35200
V66         V  0.50377889  0.29681073  0.48470131     1.35200
C67         C  0.55305762  0.33761857  0.41803291     0.77100
C68         C  0.45219330  0.33100715  0.55289817     0.77100
C69         C  0.56999475  0.33520474  0.53621328     0.77000
C70         C  0.43537518  0.33363662  0.43541539     0.76900
O71         O  0.44057063  0.45622209  0.29222268    -0.72200
O72         O  0.53389085  0.54779481  0.28729340    -0.72400
O73         O  0.53241354  0.45476876  0.28699379    -0.72300
O74         O  0.44182221  0.54911829  0.29290627    -0.72300
O75         O  0.43601712  0.52856979  0.36173578    -0.72200
O76         O  0.54650745  0.47402435  0.35503972    -0.72200
O77         O  0.51834197  0.55762592  0.35689308    -0.72200
O78         O  0.46411814  0.44533027  0.35942549    -0.72400
V79         V  0.48717669  0.50198464  0.28935673     1.35200
V80         V  0.49120937  0.50144098  0.35717814     1.35200
C81         C  0.43745600  0.43478454  0.32893281     0.77100
C82         C  0.54125738  0.56875580  0.32366881     0.77100
C83         C  0.55552081  0.44938211  0.32229724     0.77000
C84         C  0.42281693  0.55351965  0.33069657     0.76900
C85         C  0.65481823  0.65751881  0.62973812     0.86100
C86         C  0.67973389  0.62684136  0.59511265    -0.54200
C87         C  0.65193932  0.60082013  0.57053469     0.09000
C88         C  0.60336243  0.60654730  0.58359160     0.20000
C89         C  0.61924370  0.68377222  0.60195149    -0.54900
C90         C  0.59183963  0.65617669  0.57821822     0.09100
C91         C  0.62745215  0.62275817  0.65830762    -0.54400
C92         C  0.59957086  0.59655382  0.63326838     0.09700
H93         H  0.71530735  0.62433871  0.59063950     0.14200
H94         H  0.58195695  0.58448554  0.56335541    -0.00100
H95         H  0.61564310  0.72017523  0.60222357     0.14500
H96         H  0.62919326  0.62019900  0.69429502     0.14300
C97         C  0.85639898  0.84738283  0.82952059     0.86100
C98         C  0.88412815  0.81987744  0.86475279    -0.54200
C99         C  0.90901975  0.84665505  0.89192865     0.09000
C100        C  0.90471571  0.89655067  0.88085060     0.20000
C101        C  0.82936458  0.88137172  0.85884699    -0.54900
C102        C  0.85557286  0.90806847  0.88476189     0.09100
C103        C  0.89151046  0.87675682  0.80428172    -0.54400
C104        C  0.91717545  0.90223433  0.83196010     0.09700
H105        H  0.88292295  0.78383380  0.86998973     0.14200
H106        H  0.92534528  0.91756823  0.90299128    -0.00100
H107        H  0.79341700  0.88429369  0.85851645     0.14500
H108        H  0.89546194  0.87698485  0.76836578     0.14300
C109        C  0.66225489  0.34693230  0.62710382     0.86100
C110        C  0.68717924  0.38104716  0.59549555    -0.54200
C111        C  0.65876671  0.40779130  0.57171593     0.09000
C112        C  0.61013685  0.39701557  0.58085850     0.20000
C113        C  0.63181391  0.37864429  0.65568951    -0.54900
C114        C  0.60416631  0.40469517  0.63068794     0.09100
C115        C  0.63023737  0.32006733  0.59601958    -0.54400
C116        C  0.60336275  0.34697232  0.57117600     0.09700
H117        H  0.72284487  0.38591584  0.59420229     0.14200
H118        H  0.58708372  0.41773358  0.56102433    -0.00100
H119        H  0.63356745  0.38162678  0.69164883     0.14500
H120        H  0.62989733  0.28357361  0.59340231     0.14300
C121        C  0.85675214  0.15413741  0.83179336     0.86100
C122        C  0.88853467  0.18106548  0.86369981    -0.54200
C123        C  0.91474539  0.15386005  0.88917376     0.09000
C124        C  0.90471832  0.10392738  0.88234427     0.20000
C125        C  0.88709131  0.12037526  0.80598332    -0.54900
C126        C  0.91157579  0.09341729  0.83323385     0.09100
C127        C  0.82925952  0.12407663  0.86490609    -0.54400
C128        C  0.85530501  0.09791059  0.89154021     0.09700
H129        H  0.88937358  0.21742858  0.86695365     0.14200
H130        H  0.92539601  0.08225879  0.90379248    -0.00100
H131        H  0.88773596  0.11734970  0.76997403     0.14500
H132        H  0.79335504  0.12445485  0.86804217     0.14300
C133        C  0.35551282  0.64781361  0.65039222     0.86100
C134        C  0.38983405  0.61593170  0.67418129    -0.54200
C135        C  0.41420718  0.59071596  0.64518184     0.09000
C136        C  0.40146989  0.59908696  0.59674011     0.20000
C137        C  0.38282350  0.67546464  0.61572448    -0.54900
C138        C  0.40632178  0.64929947  0.58706875     0.09100
C139        C  0.32701234  0.61391301  0.62186915    -0.54400
C140        C  0.35210076  0.58801387  0.59389299     0.09700
H141        H  0.39190021  0.61024565  0.70970149     0.14200
H142        H  0.42184585  0.57899311  0.57361908    -0.00100
H143        H  0.38224529  0.71198056  0.61345110     0.14500
H144        H  0.29128838  0.60988095  0.62482852     0.14300
C145        C  0.15654552  0.84882110  0.84321491     0.86100
C146        C  0.12193643  0.82122783  0.87133350    -0.54200
C147        C  0.09363441  0.84785310  0.89516870     0.09000
C148        C  0.10425095  0.89791468  0.89049183     0.20000
C149        C  0.12853761  0.88317058  0.81557708    -0.54900
C150        C  0.10162851  0.90943987  0.84113079     0.09100
C151        C  0.18098096  0.87809948  0.87938807    -0.54400
C152        C  0.15266105  0.90358238  0.90424986     0.09700
H153        H  0.12020520  0.78472383  0.87237058     0.14200
H154        H  0.08179230  0.91909707  0.91058098    -0.00100
H155        H  0.13077816  0.88677241  0.77968373     0.14500
H156        H  0.21628786  0.87741886  0.88640620     0.14300
C157        C  0.63735138  0.65770908  0.33095209     0.86100
C158        C  0.60269399  0.62768540  0.30566102    -0.54200
C159        C  0.57810605  0.60099317  0.33329744     0.09000
C160        C  0.59121702  0.60610860  0.38203206     0.20000
C161        C  0.60889420  0.68373333  0.36664521    -0.54900
C162        C  0.58512025  0.65572323  0.39353780     0.09100
C163        C  0.66574093  0.62414914  0.35938792    -0.54400
C164        C  0.64079479  0.59631299  0.38530397     0.09700
H165        H  0.59791802  0.62828059  0.26984820     0.14200
H166        H  0.57169429  0.58388081  0.40403686    -0.00100
H167        H  0.60792394  0.71974270  0.37188982     0.14500
H168        H  0.70175467  0.62232383  0.35840490     0.14300
C169        C  0.84038117  0.84605048  0.13022996     0.86100
C170        C  0.86711488  0.88070605  0.15920885    -0.54200
C171        C  0.89566236  0.90660930  0.13496304     0.09000
C172        C  0.89464712  0.89546103  0.08543158     0.20000
C173        C  0.81749692  0.87638823  0.09399306    -0.54900
C174        C  0.84682649  0.90152650  0.07032205     0.09100
C175        C  0.87640552  0.81868141  0.10389397    -0.54400
C176        C  0.90520368  0.84542059  0.08061842     0.09700
H177        H  0.86301769  0.88476177  0.19488018     0.14200
H178        H  0.91758286  0.91697636  0.06623617    -0.00100
H179        H  0.78233241  0.87934139  0.08740333     0.14500
H180        H  0.87852735  0.78216515  0.10384965     0.14300
C181        C  0.36201902  0.34030519  0.64679348     0.86100
C182        C  0.39456069  0.37355312  0.67157032    -0.54200
C183        C  0.41880132  0.39969601  0.64314660     0.09000
C184        C  0.40749246  0.39091849  0.59441978     0.20000
C185        C  0.33317166  0.37252337  0.61724691    -0.54900
C186        C  0.35761806  0.39782669  0.58859608     0.09100
C187        C  0.39241867  0.31371135  0.61349413    -0.54400
C188        C  0.41698036  0.34116697  0.58649583     0.09700
H189        H  0.39827686  0.37662854  0.70729548     0.14200
H190        H  0.42624344  0.41316073  0.57188077    -0.00100
H191        H  0.29720161  0.37463295  0.61850121     0.14500
H192        H  0.39506019  0.27723741  0.61272622     0.14300
C193        C  0.15610111  0.15346551  0.84642140     0.86100
C194        C  0.12469614  0.18039916  0.87862154    -0.54200
C195        C  0.09857816  0.15316855  0.90416291     0.09000
C196        C  0.10394116  0.10336930  0.89292952     0.20000
C197        C  0.18077589  0.11855232  0.87660535    -0.54900
C198        C  0.15267652  0.09188374  0.90060859     0.09100
C199        C  0.12263691  0.12477947  0.81801878    -0.54400
C200        C  0.09527691  0.09859972  0.84311713     0.09700
H201        H  0.12213429  0.21673560  0.88047408     0.14200
H202        H  0.08147344  0.08189222  0.91274272    -0.00100
H203        H  0.21665920  0.11515095  0.87809173     0.14500
H204        H  0.12002854  0.12592400  0.78201097     0.14300
C205        C  0.33428462  0.64842129  0.34895981     0.86100
C206        C  0.31121762  0.61755886  0.38471812    -0.54200
C207        C  0.34066525  0.59267250  0.40869063     0.09000
C208        C  0.38865327  0.59966393  0.39416900     0.20000
C209        C  0.36943058  0.67611226  0.37594695    -0.54900
C210        C  0.39837881  0.64978380  0.39914732     0.09100
C211        C  0.36192158  0.61449784  0.32007302    -0.54400
C212        C  0.39062902  0.58900543  0.34452582     0.09700
H213        H  0.27600195  0.61470363  0.39112977     0.14200
H214        H  0.41186853  0.57877056  0.41370190    -0.00100
H215        H  0.37127977  0.71265258  0.37601921     0.14500
H216        H  0.35876739  0.61109908  0.28423290     0.14300
C217        C  0.14193299  0.84480328  0.14603513     0.86100
C218        C  0.10667859  0.87359730  0.17167730    -0.54200
C219        C  0.08137302  0.89991651  0.14445979     0.09000
C220        C  0.09438788  0.89570333  0.09557886     0.20000
C221        C  0.11446471  0.81861027  0.10971022    -0.54900
C222        C  0.08996417  0.84618070  0.08323307     0.09100
C223        C  0.16955051  0.87956481  0.11801112    -0.54400
C224        C  0.14373703  0.90698694  0.09224209     0.09700
H225        H  0.10207056  0.87251270  0.20750121     0.14200
H226        H  0.07385426  0.91732392  0.07391670    -0.00100
H227        H  0.11531369  0.78280904  0.10313990     0.14500
H228        H  0.20552029  0.88210967  0.11874054     0.14300
C229        C  0.64495082  0.35369391  0.32671974     0.86100
C230        C  0.67239695  0.38372715  0.35947773    -0.54200
C231        C  0.64659598  0.40788399  0.38795787     0.09000
C232        C  0.59695050  0.40114012  0.37993135     0.20000
C233        C  0.61311823  0.32517088  0.35698673    -0.54900
C234        C  0.58762985  0.35082768  0.38475664     0.09100
C235        C  0.61304880  0.38800098  0.30259234    -0.54400
C236        C  0.58845877  0.41310036  0.33136436     0.09700
H237        H  0.70844325  0.38501397  0.36028726     0.14200
H238        H  0.57643586  0.42157769  0.40271743    -0.00100
H239        H  0.61089849  0.28867052  0.35595511     0.14500
H240        H  0.60973615  0.39331242  0.26718476     0.14300
C241        C  0.84197393  0.15051522  0.13397669     0.86100
C242        C  0.81798771  0.11543388  0.10272739    -0.54200
C243        C  0.84684577  0.08973267  0.07881762     0.09000
C244        C  0.89523206  0.10173111  0.08745876     0.20000
C245        C  0.87449726  0.12105368  0.16243454    -0.54900
C246        C  0.90299994  0.09604717  0.13730646     0.09100
C247        C  0.87228947  0.17809775  0.10153759    -0.54400
C248        C  0.89999003  0.15172254  0.07690264     0.09700
H249        H  0.78263599  0.11030879  0.09913946     0.14200
H250        H  0.91809111  0.08088147  0.06749365    -0.00100
H251        H  0.87493930  0.12056775  0.19856452     0.14500
H252        H  0.87105496  0.21448830  0.09800251     0.14300
C253        C  0.34308390  0.34541915  0.34465945     0.86100
C254        C  0.37507248  0.31834132  0.37567680    -0.54200
C255        C  0.40176013  0.34523569  0.40092934     0.09000
C256        C  0.39483081  0.39527702  0.39180532     0.20000
C257        C  0.31803281  0.37901973  0.37641304    -0.54900
C258        C  0.34598518  0.40520729  0.40099797     0.09100
C259        C  0.37382679  0.37729878  0.31656686    -0.54400
C260        C  0.40212265  0.40222699  0.34205386     0.09700
H261        H  0.37561482  0.28182579  0.37786644     0.14200
H262        H  0.41699624  0.41673223  0.41198911    -0.00100
H263        H  0.28230031  0.38322429  0.37815964     0.14500
H264        H  0.37321000  0.38003102  0.28057500     0.14300
C265        C  0.14209698  0.14960877  0.14954680     0.86100
C266        C  0.11181065  0.11523700  0.17456102    -0.54200
C267        C  0.08718840  0.08904858  0.14667688     0.09000
C268        C  0.09409571  0.10068156  0.09770399     0.20000
C269        C  0.16952077  0.12055004  0.11557288    -0.54900
C270        C  0.14353926  0.09508571  0.08827598     0.09100
C271        C  0.11015082  0.17734961  0.11851997    -0.54400
C272        C  0.08402310  0.15080171  0.09219367     0.10900
H273        H  0.11106887  0.11145517  0.21049858     0.14200
H274        H  0.07351766  0.07948755  0.07563457    -0.00100
H275        H  0.20539341  0.12123299  0.11217741     0.14500
H276        H  0.10898539  0.21382174  0.11673404     0.14300
O277        O  0.19756199  0.04837425  0.95503997    -0.72200
O278        O  0.19355008  0.95048298  0.04217613    -0.72400
O279        O  0.19795213  0.95547654  0.95028000    -0.72300
O280        O  0.19305638  0.04339933  0.04685880    -0.72300
O281        O  0.12516597  0.05377101  0.02537398    -0.72200
O282        O  0.12841156  0.94473831  0.96517982    -0.72200
O283        O  0.12433285  0.96879583  0.04908061    -0.72200
O284        O  0.12938606  0.02976362  0.94140173    -0.72400
V285        V  0.19587757  0.99943479  0.99860978     1.35200
V286        V  0.12799588  0.99926535  0.99530314     1.35200
C287        C  0.16204486  0.05463327  0.93261157     0.77100
C288        C  0.15606334  0.94409467  0.06106628     0.77100
C289        C  0.16173967  0.93465536  0.94208081     0.77000
C290        C  0.15613758  0.06402349  0.05153093     0.76900
O291        O  0.94336351  0.13176186  0.01634702    -0.72200
O292        O  0.05505346  0.13193696  0.96430547    -0.72400
O293        O  0.02516726  0.13086349  0.04637432    -0.72300
O294        O  0.97339109  0.13255733  0.93447383    -0.72300
O295        O  0.95367950  0.20182448  0.94491461    -0.72200
O296        O  0.04531040  0.20028084  0.03762109    -0.72200
O297        O  0.04539556  0.20156394  0.94524903    -0.72200
O298        O  0.95353313  0.20080933  0.03714880    -0.72400
V299        V  0.99924431  0.13288090  0.99041007     1.35200
V300        V  0.99950402  0.20163995  0.99125110     1.35200
C301        C  0.93233706  0.16378309  0.04138129     0.77100
C302        C  0.06617708  0.16445532  0.93992295     0.77100
C303        C  0.04958860  0.16295313  0.05845582     0.77000
C304        C  0.94916559  0.16505435  0.92320310     0.76900
O305        O  0.96528643  0.05363012  0.12013812    -0.72200
O306        O  0.02041345  0.94192626  0.12192734    -0.72400
O307        O  0.93775000  0.96975980  0.11788041    -0.72300
O308        O  0.04777229  0.02590116  0.12414051    -0.72300
O309        O  0.03327583  0.04553276  0.19195606    -0.72200
O310        O  0.94510036  0.94877642  0.18645017    -0.72200
O311        O  0.03695315  0.95229951  0.19124024    -0.72200
O312        O  0.94171137  0.04202311  0.18716885    -0.72400
V313        V  0.99274401  0.99777153  0.12204828     1.35200
V314        V  0.98923412  0.99711655  0.18979452     1.35200
C315        C  0.93859784  0.06385736  0.15064155     0.77100
C316        C  0.04405088  0.93131526  0.15477915     0.77100
C317        C  0.92592574  0.94387732  0.14880034     0.77000
C318        C  0.05605595  0.05133043  0.15654748     0.76900
O319        O  0.87433516  0.05455141  0.95273367    -0.72200
O320        O  0.87195739  0.94475805  0.01129573    -0.72400
O321        O  0.87539983  0.96982627  0.92776400    -0.72300
O322        O  0.87089088  0.02932988  0.03616343    -0.72300
O323        O  0.80237865  0.04744644  0.02345096    -0.72200
O324        O  0.80610728  0.95157687  0.93458946    -0.72200
O325        O  0.80218725  0.95470771  0.02600244    -0.72200
O326        O  0.80626629  0.04465987  0.93162458    -0.72400
V327        V  0.87195605  0.99962855  0.98189488     1.35200
V328        V  0.80396515  0.99963313  0.97888146     1.35200
C329        C  0.84307416  0.06552240  0.92723860     0.77100
C330        C  0.83843859  0.93390951  0.03375523     0.77100
C331        C  0.84358727  0.94517978  0.91581660     0.77000
C332        C  0.83799640  0.05348647  0.04575747     0.76900
O333        O  0.95006793  0.02921842  0.85461729    -0.72200
O334        O  0.05961251  0.97211433  0.86001112    -0.72400
O335        O  0.03279369  0.05625752  0.85970343    -0.72300
O336        O  0.97709264  0.94502882  0.85533131    -0.72300
O337        O  0.96067350  0.95653305  0.78619234    -0.72200
O338        O  0.05607729  0.04605363  0.79230215    -0.72200
O339        O  0.05227046  0.95286259  0.79092136    -0.72200
O340        O  0.96475630  0.04999883  0.78718679    -0.72400
V341        V  0.00490122  0.00066535  0.85637068     1.35200
V342        V  0.00845230  0.00135904  0.78858990     1.35200
C343        C  0.94210889  0.05540594  0.82268892     0.77100
C344        C  0.07128153  0.94692973  0.82846716     0.77100
C345        C  0.05941224  0.06699703  0.82933792     0.77000
C346        C  0.95376462  0.93469902  0.82221826     0.76900
O347        O  0.05228871  0.86756440  0.01935464    -0.72200
O348        O  0.94611126  0.86704652  0.95662291    -0.72400
O349        O  0.96819158  0.86652194  0.04128145    -0.72300
O350        O  0.03049758  0.86800692  0.93480006    -0.72300
O351        O  0.04964712  0.79862274  0.94570601    -0.72200
O352        O  0.94967810  0.79718320  0.02930226    -0.72200
O353        O  0.95828230  0.79790865  0.93731797    -0.72200
O354        O  0.04108948  0.79785140  0.03742194    -0.72400
V355        V  0.99924147  0.86617545  0.98798535     1.35200
V356        V  0.99967647  0.79739494  0.98744053     1.35200
C357        C  0.06124940  0.83502642  0.04453823     0.77100
C358        C  0.93765468  0.83489947  0.93071997     0.77100
C359        C  0.94307501  0.83398053  0.05042122     0.77000
C360        C  0.05597845  0.83587518  0.92530406     0.76900
C361        C  0.24270994  0.27263240  0.31056397    -0.02400
C362        C  0.25615665  0.25473626  0.26923873     0.06200
C363        C  0.29920019  0.26417496  0.25390231    -0.08400
C364        C  0.32831419  0.29139131  0.27844119     0.03600
C365        C  0.31321213  0.31374407  0.31744484    -0.15600
C366        C  0.27086126  0.30185689  0.33391588    -0.08900
C367        C  0.22613823  0.22611459  0.24151495     0.04600
C368        C  0.18331804  0.24163400  0.23111284    -0.10100
C369        C  0.15472519  0.21645735  0.20393009    -0.00400
C370        C  0.17046173  0.17704405  0.18226053    -0.00600
C371        C  0.21209790  0.15993410  0.19579387    -0.13600
C372        C  0.23955696  0.18369378  0.22519845    -0.00100
C373        C  0.10883405  0.23046356  0.20184959     0.39200
C374        C  0.28036200  0.16272717  0.23980301     0.35800
C375        C  0.20114817  0.25971385  0.33095779     0.35500
C376        C  0.37390340  0.29355041  0.26357730     0.36300
N377        N  0.07197825  0.24156781  0.20079985    -0.44500
N378        N  0.31289316  0.14579699  0.25174348    -0.44900
N379        N  0.41042515  0.29490841  0.25156462    -0.42300
N380        N  0.16795834  0.24920641  0.34741878    -0.43700
H381        H  0.25986968  0.31379966  0.36608054     0.12400
H382        H  0.31047192  0.24956046  0.22279564     0.08900
H383        H  0.17179048  0.27331358  0.24491651     0.10000
H384        H  0.22308383  0.12713513  0.18451706     0.15800
C385        C  0.70235986  0.30131577  0.22383502    -0.02400
C386        C  0.73117595  0.26967257  0.24342459     0.06200
C387        C  0.73290019  0.26635014  0.28987827    -0.08400
C388        C  0.70546694  0.29303311  0.31686808     0.03600
C389        C  0.67524081  0.32426047  0.29744481    -0.15600
C390        C  0.67472534  0.32778992  0.25055842    -0.08900
C391        C  0.75876061  0.23885317  0.21592533     0.04600
C392        C  0.80515426  0.24165934  0.21820164    -0.10100
C393        C  0.83210577  0.21360848  0.19207294    -0.00400
C394        C  0.81271038  0.18125214  0.16295792    -0.00600
C395        C  0.76588034  0.17855588  0.16159661    -0.13600
C396        C  0.73917946  0.20669670  0.18759819    -0.00100
C397        C  0.87969270  0.21917099  0.19572841     0.39200
C398        C  0.69148990  0.20154688  0.18491241     0.35800
C399        C  0.70081534  0.30766913  0.17615727     0.35500
C400        C  0.70928935  0.28747287  0.36451566     0.36300
N401        N  0.91780367  0.22363959  0.19858079    -0.44500
N402        N  0.65328995  0.19774251  0.18249347    -0.44900
N403        N  0.71256895  0.28306919  0.40266272    -0.42300
N404        N  0.69931909  0.31266098  0.13797850    -0.43700
H405        H  0.65321732  0.35106290  0.23357988     0.12400
H406        H  0.75532250  0.24222188  0.30510930     0.08900
H407        H  0.82036584  0.26631739  0.24010691     0.10000
H408        H  0.74894783  0.15478842  0.14054413     0.15800
C409        C  0.23123210  0.71160021  0.30407725    -0.02400
C410        C  0.24941983  0.73587021  0.26822808     0.06200
C411        C  0.29506445  0.73330732  0.25999102    -0.08400
C412        C  0.32256481  0.70582709  0.28597077     0.03600
C413        C  0.30436605  0.67928537  0.32092144    -0.15600
C414        C  0.25845149  0.68364379  0.32984288    -0.08900
C415        C  0.22126823  0.76305250  0.23793771     0.04600
C416        C  0.22540189  0.81001793  0.23783691    -0.10100
C417        C  0.20013103  0.83663516  0.20873162    -0.00400
C418        C  0.17020975  0.81620118  0.17807056    -0.00600
C419        C  0.16585884  0.76875820  0.17947475    -0.13600
C420        C  0.19130886  0.74239927  0.20841179    -0.00100
C421        C  0.20602016  0.88488738  0.21118889     0.39200
C422        C  0.18690835  0.69391912  0.20643910     0.35800
C423        C  0.18480813  0.71563761  0.31570700     0.35500
C424        C  0.36949019  0.70574746  0.27580540     0.36300
N425        N  0.21119092  0.92350057  0.21305933    -0.44500
N426        N  0.18355579  0.65509286  0.20481871    -0.44900
N427        N  0.40708180  0.70566044  0.26767930    -0.42300
N428        N  0.14769136  0.71889203  0.32525396    -0.43700
H429        H  0.24296855  0.66638379  0.35726560     0.12400
H430        H  0.30919327  0.75253342  0.23271999     0.08900
H431        H  0.24847942  0.82594481  0.26072179     0.10000
H432        H  0.14226779  0.75116649  0.15887816     0.15800
C433        C  0.23488253  0.18413855  0.75053388    -0.02400
C434        C  0.25026038  0.22744092  0.76220658     0.06200
C435        C  0.23679149  0.24592725  0.80303217    -0.08400
C436        C  0.20820025  0.22249375  0.83174716     0.03600
C437        C  0.18903921  0.18088179  0.81813564    -0.15600
C438        C  0.20501023  0.16145554  0.77832312    -0.08900
C439        C  0.28066878  0.25377649  0.73269318     0.04600
C440        C  0.26889596  0.26082336  0.68806859    -0.10100
C441        C  0.29611722  0.28582062  0.65943352    -0.00400
C442        C  0.33419870  0.30857538  0.67621795    -0.00600
C443        C  0.34708944  0.29920139  0.72045714    -0.13600
C444        C  0.32122057  0.27172870  0.74825241    -0.00100
C445        C  0.28437063  0.28631370  0.61279760     0.39200
C446        C  0.33813264  0.26057441  0.79190058     0.35800
C447        C  0.25046823  0.16136458  0.71101647     0.35500
C448        C  0.20258152  0.24083469  0.87587306     0.36300
N449        N  0.27487897  0.28651441  0.57545366    -0.44500
N450        N  0.35169086  0.25124007  0.82676046    -0.44900
N451        N  0.19862363  0.25584066  0.91122455    -0.42300
N452        N  0.26289554  0.14313674  0.67932145    -0.43700
H453        H  0.19483391  0.12775101  0.76892248     0.12400
H454        H  0.24946494  0.27863745  0.81302100     0.08900
H455        H  0.23839554  0.24624354  0.67527620     0.10000
H456        H  0.37822506  0.31168918  0.73343140     0.15800
C457        C  0.73519846  0.78551840  0.17421558    -0.02400
C458        C  0.75165875  0.76314120  0.21197251     0.06200
C459        C  0.79712196  0.76531915  0.22156440    -0.08400
C460        C  0.82605058  0.79086590  0.19503215     0.03600
C461        C  0.80953045  0.81566201  0.15806141    -0.15600
C462        C  0.76388425  0.81105614  0.14763178    -0.08900
C463        C  0.72188568  0.73719378  0.24181884     0.04600
C464        C  0.72312227  0.69011527  0.24071234    -0.10100
C465        C  0.69557996  0.66438820  0.26844171    -0.00400
C466        C  0.66623368  0.68577916  0.29900602    -0.00600
C467        C  0.66483030  0.73340279  0.29897620    -0.13600
C468        C  0.69230043  0.75889820  0.27100659    -0.00100
C469        C  0.69878206  0.61592453  0.26497958     0.39200
C470        C  0.69008174  0.80749315  0.27334597     0.35800
C471        C  0.68893812  0.78218520  0.16167435     0.35500
C472        C  0.87254640  0.79116060  0.20697871     0.36300
N473        N  0.70164250  0.57711253  0.26238613    -0.44500
N474        N  0.68830591  0.84641087  0.27524176    -0.44900
N475        N  0.90976407  0.79152936  0.21670438    -0.42300
N476        N  0.65191376  0.77954269  0.15155780    -0.43700
H477        H  0.74962314  0.82630765  0.11845618     0.12400
H478        H  0.80997232  0.74731955  0.25024672     0.08900
H479        H  0.74567143  0.67339007  0.21789640     0.10000
H480        H  0.64244667  0.75173063  0.32022677     0.15800
C481        C  0.26248366  0.72904108  0.68411674    -0.02400
C482        C  0.27283074  0.73994123  0.72860067     0.06200
C483        C  0.31224896  0.72299146  0.74706149    -0.08400
C484        C  0.34081010  0.69531532  0.72236079     0.03600
C485        C  0.32763000  0.67943565  0.67965389    -0.15600
C486        C  0.28922841  0.69870150  0.66055169    -0.08900
C487        C  0.24340166  0.76926765  0.75622147     0.04600
C488        C  0.19823446  0.75835159  0.76033935    -0.10100
C489        C  0.16957198  0.78441945  0.78656333    -0.00400
C490        C  0.18657520  0.82035265  0.81282563    -0.00600
C491        C  0.23149551  0.83258054  0.80641915    -0.13600
C492        C  0.25956891  0.80782678  0.77838810    -0.00100
C493        C  0.12268688  0.77429671  0.78412829     0.39200
C494        C  0.30422319  0.82415368  0.77109828     0.35800
C495        C  0.22622822  0.75067144  0.66097134     0.35500
C496        C  0.38487892  0.68879362  0.74017150     0.36300
N497        N  0.08513478  0.76615438  0.78182662    -0.44500
N498        N  0.33992259  0.83731702  0.76503597    -0.44900
N499        N  0.42030640  0.68447234  0.75459554    -0.42300
N500        N  0.19750777  0.76843975  0.64230531    -0.43700
H501        H  0.28058523  0.69099681  0.62634841     0.12400
H502        H  0.32158944  0.73271830  0.78059696     0.08900
H503        H  0.18507349  0.72953815  0.74242619     0.10000
H504        H  0.24486600  0.86266652  0.82163200     0.15800
C505        C  0.76216761  0.27593280  0.66665044    -0.02400
C506        C  0.74617484  0.25719158  0.70677567     0.06200
C507        C  0.70184893  0.26511404  0.71879887    -0.08400
C508        C  0.67390389  0.29147158  0.69222189     0.03600
C509        C  0.69127780  0.31502751  0.65489676    -0.15600
C510        C  0.73516567  0.30501726  0.64166368    -0.08900
C511        C  0.77493748  0.22967227  0.73689383     0.04600
C512        C  0.81649337  0.24656946  0.74998486    -0.10100
C513        C  0.84416336  0.22236249  0.77889509    -0.00400
C514        C  0.82858572  0.18217075  0.79939184    -0.00600
C515        C  0.78793548  0.16420408  0.78400421    -0.13600
C516        C  0.76147589  0.18717408  0.75310153    -0.00100
C517        C  0.88917454  0.23841509  0.78392911     0.39200
C518        C  0.72172597  0.16526308  0.73694990     0.35800
C519        C  0.80533277  0.26404194  0.64920728     0.35500
C520        C  0.62724616  0.29214279  0.70353345     0.36300
N521        N  0.92529898  0.25134933  0.78751200    -0.44500
N522        N  0.68994564  0.14768550  0.72389674    -0.44900
N523        N  0.58985712  0.29232854  0.71256117    -0.42300
N524        N  0.83980561  0.25418571  0.63519235    -0.43700
H525        H  0.74831040  0.31828940  0.61085032     0.12400
H526        H  0.68868399  0.25012800  0.74897076     0.08900
H527        H  0.82787290  0.27860930  0.73685075     0.10000
H528        H  0.77711760  0.13118395  0.79486004     0.15800
C529        C  0.75649873  0.72619914  0.66903596    -0.02400
C530        C  0.74090601  0.74556777  0.70871097     0.06200
C531        C  0.69614935  0.74030170  0.72034970    -0.08400
C532        C  0.66758094  0.71360294  0.69445787     0.03600
C533        C  0.68424049  0.68978414  0.65694748    -0.15600
C534        C  0.72837449  0.69896222  0.64357610    -0.08900
C535        C  0.77104019  0.77090236  0.73871668     0.04600
C536        C  0.76801062  0.81786109  0.74074356    -0.10100
C537        C  0.79603081  0.84281041  0.76872234    -0.00400
C538        C  0.82691696  0.82057027  0.79712544    -0.00600
C539        C  0.83058718  0.77325315  0.79340838    -0.13600
C540        C  0.80316054  0.74860699  0.76465907    -0.00100
C541        C  0.79222743  0.89132859  0.76724808     0.39200
C542        C  0.80851079  0.70026145  0.76231724     0.35800
C543        C  0.80112902  0.73449777  0.65331813     0.35500
C544        C  0.62124378  0.71218009  0.70688009     0.36300
N545        N  0.78902879  0.93018877  0.76621271    -0.44500
N546        N  0.81286120  0.66156561  0.76019736    -0.44900
N547        N  0.58410569  0.71144586  0.71686853    -0.42300
N548        N  0.83678689  0.74121157  0.64051018    -0.43700
H549        H  0.74145817  0.68627485  0.61262870     0.12400
H550        H  0.68359580  0.75686555  0.74997941     0.08900
H551        H  0.74397984  0.83512535  0.71990512     0.10000
H552        H  0.85532204  0.75475601  0.81182379     0.15800
loop_ 
_geom_bond_atom_site_label_1 
_geom_bond_atom_site_label_2 
_geom_bond_distance 
_geom_bond_site_symmetry_2 
_ccdc_geom_bond_type 
O1            V9   1.847       .  S
O1           C11   1.255       .  A
O2            V9   1.847       .  S
O2           C12   1.255       .  A
O3            V9   1.847       .  S
O3           C13   1.256       .  A
O4            V9   1.848       .  S
O4           C14   1.255       .  A
O5           V10   1.960       .  S
O5           C14   1.278       .  A
O6           V10   1.963       .  S
O6           C13   1.278       .  A
O7           V10   1.958       .  S
O7           C12   1.277       .  A
O8           V10   1.958       .  S
O8           C11   1.277       .  A
V9           V10   2.046       .  T
C11         C114   1.492       .  S
C12         C135   1.493       .  S
C13          C92   1.498       .  S
C14         C183   1.495       .  S
O15          V23   1.853       .  S
O15          C25   1.257       .  A
O16          V23   1.856       .  S
O16          C26   1.257       .  A
O17          V23   1.849       .  S
O17          C27   1.254       .  A
O18          V23   1.846       .  S
O18          C28   1.254       .  A
O19          V24   1.959       .  S
O19          C28   1.279       .  A
O20          V24   1.953       .  S
O20          C27   1.277       .  A
O21          V24   1.952       .  S
O21          C26   1.276       .  A
O22          V24   1.956       .  S
O22          C25   1.276       .  A
V23          V24   2.042       .  T
C25         C111   1.492       .  S
C26         C164   1.489       .  S
C27         C231   1.485       .  S
C28          C87   1.491       .  S
O29          V37   1.854       .  S
O29          C39   1.256       .  A
O30          V37   1.852       .  S
O30          C40   1.257       .  A
O31          V37   1.851       .  S
O31          C41   1.255       .  A
O32          V37   1.850       .  S
O32          C42   1.255       .  A
O33          V38   1.954       .  S
O33          C42   1.277       .  A
O34          V38   1.957       .  S
O34          C41   1.278       .  A
O35          V38   1.953       .  S
O35          C40   1.276       .  A
O36          V38   1.955       .  S
O36          C39   1.277       .  A
V37          V38   2.041       .  T
C39         C210   1.489       .  S
C40          C90   1.488       .  S
C41         C138   1.492       .  S
C42         C162   1.487       .  S
O43          V51   1.855       .  S
O43          C53   1.256       .  A
O44          V51   1.851       .  S
O44          C54   1.256       .  A
O45          V51   1.849       .  S
O45          C55   1.255       .  A
O46          V51   1.851       .  S
O46          C56   1.255       .  A
O47          V52   1.951       .  S
O47          C56   1.276       .  A
O48          V52   1.957       .  S
O48          C55   1.277       .  A
O49          V52   1.956       .  S
O49          C54   1.276       .  A
O50          V52   1.956       .  S
O50          C53   1.278       .  A
V51          V52   2.042       .  T
C53         C258   1.491       .  S
C54         C140   1.491       .  S
C55         C186   1.492       .  S
C56         C207   1.485       .  S
O57          V65   1.858       .  S
O57          C67   1.257       .  A
O58          V65   1.852       .  S
O58          C68   1.257       .  A
O59          V65   1.851       .  S
O59          C69   1.255       .  A
O60          V65   1.851       .  S
O60          C70   1.255       .  A
O61          V66   1.955       .  S
O61          C70   1.277       .  A
O62          V66   1.959       .  S
O62          C69   1.278       .  A
O63          V66   1.960       .  S
O63          C68   1.277       .  A
O64          V66   1.959       .  S
O64          C67   1.278       .  A
V65          V66   2.040       .  T
C67         C234   1.495       .  S
C68         C188   1.494       .  S
C69         C116   1.494       .  S
C70         C255   1.488       .  S
O71          V79   1.953       .  S
O71          C81   1.276       .  A
O72          V79   1.956       .  S
O72          C82   1.276       .  A
O73          V79   1.955       .  S
O73          C83   1.278       .  A
O74          V79   1.957       .  S
O74          C84   1.278       .  A
O75          V80   1.851       .  S
O75          C84   1.255       .  A
O76          V80   1.854       .  S
O76          C83   1.255       .  A
O77          V80   1.856       .  S
O77          C82   1.257       .  A
O78          V80   1.854       .  S
O78          C81   1.257       .  A
V79          V80   2.041       .  T
C81         C260   1.489       .  S
C82         C159   1.492       .  S
C83         C236   1.489       .  S
C84         C212   1.490       .  S
C85          C86   1.573       .  S
C85          C91   1.574       .  S
C85          C89   1.565       .  S
C85         C533   1.538       .  S
C86          H93   1.081       .  S
C86          C87   1.356       .  D
C87          C88   1.523       .  S
C88          C92   1.526       .  S
C88          C90   1.521       .  S
C88          H94   1.101       .  S
C89          H95   1.086       .  S
C89          C90   1.363       .  D
C91          H96   1.085       .  S
C91          C92   1.368       .  D
C97          C98   1.575       .  S
C97         C103   1.565       .  S
C97         C101   1.567       .  S
C97         C538   1.538       .  S
C98         H105   1.081       .  S
C98          C99   1.363       .  D
C99         C358   1.490       .  S
C99         C100   1.523       .  S
C100        C104   1.525       .  S
C100        C102   1.522       .  S
C100        H106   1.103       .  S
C101        H107   1.085       .  S
C101        C102   1.362       .  D
C102        C331   1.488       .  S
C103        H108   1.085       .  S
C103        C104   1.363       .  D
C104        C346   1.492       .  S
C109        C110   1.577       .  S
C109        C115   1.560       .  S
C109        C113   1.569       .  S
C109        C509   1.535       .  S
C110        H117   1.084       .  S
C110        C111   1.368       .  D
C111        C112   1.523       .  S
C112        C116   1.526       .  S
C112        C114   1.525       .  S
C112        H118   1.102       .  S
C113        H119   1.085       .  S
C113        C114   1.361       .  D
C115        H120   1.086       .  S
C115        C116   1.359       .  D
C121        C122   1.572       .  S
C121        C127   1.571       .  S
C121        C125   1.562       .  S
C121        C514   1.535       .  S
C122        H129   1.084       .  S
C122        C123   1.363       .  D
C123        C304   1.492       .  S
C123        C124   1.525       .  S
C124        C128   1.523       .  S
C124        C126   1.522       .  S
C124        H130   1.103       .  S
C125        H131   1.086       .  S
C125        C126   1.361       .  D
C126        C343   1.489       .  S
C127        H132   1.085       .  S
C127        C128   1.363       .  D
C128        C329   1.486       .  S
C133        C134   1.572       .  S
C133        C139   1.575       .  S
C133        C137   1.560       .  S
C133        C485   1.536       .  S
C134        H141   1.082       .  S
C134        C135   1.363       .  D
C135        C136   1.525       .  S
C136        C140   1.524       .  S
C136        C138   1.525       .  S
C136        H142   1.102       .  S
C137        H143   1.086       .  S
C137        C138   1.358       .  D
C139        H144   1.085       .  S
C139        C140   1.367       .  D
C145        C146   1.571       .  S
C145        C151   1.573       .  S
C145        C149   1.561       .  S
C145        C490   1.538       .  S
C146        H153   1.085       .  S
C146        C147   1.365       .  D
C147        C360   1.493       .  S
C147        C148   1.526       .  S
C148        C152   1.523       .  S
C148        C150   1.524       .  S
C148        H154   1.103       .  S
C149        H155   1.086       .  S
C149        C150   1.361       .  D
C150        C344   1.489       .  S
C151        H156   1.083       .  S
C151        C152   1.363       .  D
C152        C289   1.488       .  S
C157        C158   1.567       .  S
C157        C163   1.566       .  S
C157        C161   1.575       .  S
C157        C466   1.539       .  S
C158        H165   1.085       .  S
C158        C159   1.365       .  D
C159        C160   1.524       .  S
C160        C164   1.523       .  S
C160        C162   1.523       .  S
C160        H166   1.103       .  S
C161        H167   1.080       .  S
C161        C162   1.362       .  D
C163        H168   1.085       .  S
C163        C164   1.361       .  D
C169        C170   1.569       .  S
C169        C175   1.569       .  S
C169        C173   1.571       .  S
C169        C461   1.541       .  S
C170        H177   1.085       .  S
C170        C171   1.363       .  D
C171        C317   1.491       .  S
C171        C172   1.524       .  S
C172        C176   1.525       .  S
C172        C174   1.519       .  S
C172        H178   1.103       .  S
C173        H179   1.080       .  S
C173        C174   1.357       .  D
C174        C330   1.481       .  S
C175        H180   1.085       .  S
C175        C176   1.367       .  D
C176        C359   1.496       .  S
C181        C182   1.576       .  S
C181        C187   1.569       .  S
C181        C185   1.567       .  S
C181        C442   1.539       .  S
C182        H189   1.083       .  S
C182        C183   1.365       .  D
C183        C184   1.525       .  S
C184        C188   1.522       .  S
C184        C186   1.525       .  S
C184        H190   1.101       .  S
C185        H191   1.085       .  S
C185        C186   1.358       .  D
C187        H192   1.085       .  S
C187        C188   1.366       .  D
C193        C194   1.571       .  S
C193        C199   1.570       .  S
C193        C197   1.564       .  S
C193        C437   1.538       .  S
C194        H201   1.082       .  S
C194        C195   1.363       .  D
C195        C302   1.489       .  S
C195        C196   1.524       .  S
C196        C200   1.525       .  S
C196        C198   1.523       .  S
C196        H202   1.103       .  S
C197        H203   1.085       .  S
C197        C198   1.364       .  D
C198        C287   1.492       .  S
C199        H204   1.085       .  S
C199        C200   1.360       .  D
C200        C345   1.488       .  S
C205        C206   1.573       .  S
C205        C211   1.568       .  S
C205        C209   1.565       .  S
C205        C413   1.536       .  S
C206        H213   1.080       .  S
C206        C207   1.360       .  D
C207        C208   1.523       .  S
C208        C212   1.526       .  S
C208        C210   1.523       .  S
C208        H214   1.103       .  S
C209        H215   1.085       .  S
C209        C210   1.362       .  D
C211        H216   1.085       .  S
C211        C212   1.363       .  D
C217        C218   1.565       .  S
C217        C223   1.569       .  S
C217        C221   1.574       .  S
C217        C418   1.539       .  S
C218        H225   1.086       .  S
C218        C219   1.363       .  D
C219        C316   1.492       .  S
C219        C220   1.525       .  S
C220        C224   1.525       .  S
C220        C222   1.521       .  S
C220        H226   1.103       .  S
C221        H227   1.081       .  S
C221        C222   1.358       .  D
C222        C357   1.485       .  S
C223        H228   1.085       .  S
C223        C224   1.365       .  D
C224        C288   1.492       .  S
C229        C230   1.563       .  S
C229        C235   1.576       .  S
C229        C233   1.568       .  S
C229        C389   1.539       .  S
C230        H237   1.086       .  S
C230        C231   1.360       .  D
C231        C232   1.526       .  S
C232        C236   1.523       .  S
C232        C234   1.526       .  S
C232        H238   1.104       .  S
C233        H239   1.085       .  S
C233        C234   1.365       .  D
C235        H240   1.080       .  S
C235        C236   1.360       .  D
C241        C242   1.576       .  S
C241        C247   1.566       .  S
C241        C245   1.566       .  S
C241        C394   1.538       .  S
C242        H249   1.080       .  S
C242        C243   1.361       .  D
C243        C332   1.488       .  S
C243        C244   1.521       .  S
C244        C248   1.523       .  S
C244        C246   1.525       .  S
C244        H250   1.103       .  S
C245        H251   1.085       .  S
C245        C246   1.363       .  D
C246        C315   1.490       .  S
C247        H252   1.085       .  S
C247        C248   1.362       .  D
C248        C301   1.488       .  S
C253        C254   1.562       .  S
C253        C259   1.569       .  S
C253        C257   1.573       .  S
C253        C365   1.536       .  S
C254        H261   1.085       .  S
C254        C255   1.362       .  D
C255        C256   1.524       .  S
C256        C260   1.525       .  S
C256        C258   1.525       .  S
C256        H262   1.103       .  S
C257        H263   1.084       .  S
C257        C258   1.362       .  D
C259        H264   1.084       .  S
C259        C260   1.363       .  D
C265        C266   1.560       .  S
C265        C271   1.572       .  S
C265        C269   1.571       .  S
C265        C370   1.535       .  S
C266        H273   1.086       .  S
C266        C267   1.361       .  D
C267        C318   1.489       .  S
C267        C268   1.525       .  S
C268        C272   1.527       .  S
C268        C270   1.524       .  S
C268        H274   1.103       .  S
C269        H275   1.084       .  S
C269        C270   1.361       .  D
C270        C290   1.487       .  S
C271        H276   1.084       .  S
C271        C272   1.365       .  D
C272        C303   1.493       .  S
O277        V285   1.955   1_545  S
O277        C287   1.277       .  A
O278        V285   1.956   1_554  S
O278        C288   1.277       .  A
O279        V285   1.953       .  S
O279        C289   1.276       .  A
O280        V285   1.952   1_544  S
O280        C290   1.276       .  A
O281        V286   1.854   1_544  S
O281        C290   1.256       .  A
O282        V286   1.854       .  S
O282        C289   1.256       .  A
O283        V286   1.854   1_554  S
O283        C288   1.256       .  A
O284        V286   1.855   1_545  S
O284        C287   1.257       .  A
V285        V286   2.045       .  T
O291        V299   1.854   1_554  S
O291        C301   1.256       .  A
O292        V299   1.854   1_455  S
O292        C302   1.257       .  A
O293        V299   1.854   1_454  S
O293        C303   1.256       .  A
O294        V299   1.851       .  S
O294        C304   1.255       .  A
O295        V300   1.959       .  S
O295        C304   1.278       .  A
O296        V300   1.960   1_454  S
O296        C303   1.279       .  A
O297        V300   1.954   1_455  S
O297        C302   1.277       .  A
O298        V300   1.954   1_554  S
O298        C301   1.276       .  A
V299        V300   2.040       .  T
O305        V313   1.853   1_545  S
O305        C315   1.256       .  A
O306        V313   1.855   1_455  S
O306        C316   1.256       .  A
O307        V313   1.856       .  S
O307        C317   1.257       .  A
O308        V313   1.855   1_445  S
O308        C318   1.256       .  A
O309        V314   1.955   1_445  S
O309        C318   1.277       .  A
O310        V314   1.957       .  S
O310        C317   1.278       .  A
O311        V314   1.958   1_455  S
O311        C316   1.278       .  A
O312        V314   1.956   1_545  S
O312        C315   1.278       .  A
V313        V314   2.038       .  T
O319        V327   1.851   1_545  S
O319        C329   1.256       .  A
O320        V327   1.852   1_554  S
O320        C330   1.255       .  A
O321        V327   1.854       .  S
O321        C331   1.257       .  A
O322        V327   1.853   1_544  S
O322        C332   1.256       .  A
O323        V328   1.951   1_544  S
O323        C332   1.276       .  A
O324        V328   1.951       .  S
O324        C331   1.275       .  A
O325        V328   1.945   1_554  S
O325        C330   1.275       .  A
O326        V328   1.950   1_545  S
O326        C329   1.275       .  A
V327        V328   2.048       .  T
O333        V341   1.856   1_655  S
O333        C343   1.257       .  A
O334        V341   1.855   1_565  S
O334        C344   1.257       .  A
O335        V341   1.853       .  S
O335        C345   1.255       .  A
O336        V341   1.850   1_665  S
O336        C346   1.255       .  A
O337        V342   1.959   1_665  S
O337        C346   1.278       .  A
O338        V342   1.955       .  S
O338        C345   1.278       .  A
O339        V342   1.953   1_565  S
O339        C344   1.277       .  A
O340        V342   1.953   1_655  S
O340        C343   1.276       .  A
V341        V342   2.039       .  T
O347        V355   1.854   1_454  S
O347        C357   1.256       .  A
O348        V355   1.855       .  S
O348        C358   1.257       .  A
O349        V355   1.854   1_554  S
O349        C359   1.256       .  A
O350        V355   1.855   1_455  S
O350        C360   1.257       .  A
O351        V356   1.958   1_455  S
O351        C360   1.278       .  A
O352        V356   1.961   1_554  S
O352        C359   1.278       .  A
O353        V356   1.954       .  S
O353        C358   1.277       .  A
O354        V356   1.951   1_454  S
O354        C357   1.276       .  A
V355        V356   2.041       .  T
C361        C362   1.410       .  A
C361        C366   1.400       .  A
C361        C375   1.444       .  S
C362        C363   1.403       .  A
C362        C367   1.493       .  S
C363        C364   1.401       .  A
C363        H382   1.085       .  S
C364        C365   1.421       .  A
C364        C376   1.444       .  S
C365        C366   1.412       .  A
C366        H381   1.081       .  S
C367        C368   1.404       .  A
C367        C372   1.410       .  A
C368        C369   1.401       .  A
C368        H383   1.084       .  S
C369        C370   1.420       .  A
C369        C373   1.444       .  S
C370        C371   1.412       .  A
C371        C372   1.399       .  A
C371        H384   1.082       .  S
C372        C374   1.445       .  S
C373        N377   1.157       .  T
C374        N378   1.157       .  T
C375        N380   1.157       .  T
C376        N379   1.158       .  T
C385        C386   1.407       .  A
C385        C390   1.398       .  A
C385        C399   1.445       .  S
C386        C387   1.400       .  A
C386        C391   1.486       .  S
C387        C388   1.402       .  A
C387        H406   1.085       .  S
C388        C389   1.423       .  A
C388        C400   1.445       .  S
C389        C390   1.412       .  A
C390        H405   1.075       .  S
C391        C392   1.400       .  A
C391        C396   1.407       .  A
C392        C393   1.403       .  A
C392        H407   1.085       .  S
C393        C394   1.423       .  A
C393        C397   1.445       .  S
C394        C395   1.412       .  A
C395        C396   1.398       .  A
C395        H408   1.075       .  S
C396        C398   1.445       .  S
C397        N401   1.157       .  T
C398        N402   1.157       .  T
C399        N404   1.157       .  T
C400        N403   1.157       .  T
C409        C410   1.406       .  A
C409        C414   1.399       .  A
C409        C423   1.445       .  S
C410        C411   1.398       .  A
C410        C415   1.482       .  S
C411        C412   1.399       .  A
C411        H430   1.085       .  S
C412        C413   1.422       .  A
C412        C424   1.445       .  S
C413        C414   1.413       .  A
C414        H429   1.076       .  S
C415        C416   1.399       .  A
C415        C420   1.405       .  A
C416        C417   1.402       .  A
C416        H431   1.085       .  S
C417        C418   1.423       .  A
C417        C421   1.444       .  S
C418        C419   1.414       .  A
C419        C420   1.398       .  A
C419        H432   1.076       .  S
C420        C422   1.446       .  S
C421        N425   1.157       .  T
C422        N426   1.157       .  T
C423        N428   1.157       .  T
C424        N427   1.157       .  T
C433        C434   1.410       .  A
C433        C438   1.399       .  A
C433        C447   1.444       .  S
C434        C435   1.403       .  A
C434        C439   1.495       .  S
C435        C436   1.403       .  A
C435        H454   1.085       .  S
C436        C437   1.422       .  A
C436        C448   1.443       .  S
C437        C438   1.412       .  A
C438        H453   1.083       .  S
C439        C440   1.402       .  A
C439        C444   1.411       .  A
C440        C441   1.400       .  A
C440        H455   1.085       .  S
C441        C442   1.422       .  A
C441        C445   1.445       .  S
C442        C443   1.412       .  A
C443        C444   1.403       .  A
C443        H456   1.080       .  S
C444        C446   1.445       .  S
C445        N449   1.157       .  T
C446        N450   1.157       .  T
C447        N452   1.157       .  T
C448        N451   1.158       .  T
C457        C458   1.404       .  A
C457        C462   1.399       .  A
C457        C471   1.445       .  S
C458        C459   1.399       .  A
C458        C463   1.483       .  S
C459        C460   1.403       .  A
C459        H478   1.085       .  S
C460        C461   1.422       .  A
C460        C472   1.444       .  S
C461        C462   1.415       .  A
C462        H477   1.076       .  S
C463        C464   1.398       .  A
C463        C468   1.406       .  A
C464        C465   1.401       .  A
C464        H479   1.085       .  S
C465        C466   1.424       .  A
C465        C469   1.445       .  S
C466        C467   1.414       .  A
C467        C468   1.400       .  A
C467        H480   1.076       .  S
C468        C470   1.445       .  S
C469        N473   1.157       .  T
C470        N474   1.157       .  T
C471        N476   1.157       .  T
C472        N475   1.157       .  T
C481        C482   1.409       .  A
C481        C486   1.400       .  A
C481        C495   1.444       .  S
C482        C483   1.403       .  A
C482        C487   1.494       .  S
C483        C484   1.402       .  A
C483        H502   1.085       .  S
C484        C485   1.423       .  A
C484        C496   1.443       .  S
C485        C486   1.411       .  A
C486        H501   1.084       .  S
C487        C488   1.403       .  A
C487        C492   1.410       .  A
C488        C489   1.401       .  A
C488        H503   1.085       .  S
C489        C490   1.421       .  A
C489        C493   1.444       .  S
C490        C491   1.413       .  A
C491        C492   1.401       .  A
C491        H504   1.080       .  S
C492        C494   1.445       .  S
C493        N497   1.157       .  T
C494        N498   1.157       .  T
C495        N500   1.157       .  T
C496        N499   1.158       .  T
C505        C506   1.412       .  A
C505        C510   1.403       .  A
C505        C519   1.445       .  S
C506        C507   1.402       .  A
C506        C511   1.495       .  S
C507        C508   1.399       .  A
C507        H526   1.084       .  S
C508        C509   1.421       .  A
C508        C520   1.445       .  S
C509        C510   1.411       .  A
C510        H525   1.081       .  S
C511        C512   1.403       .  A
C511        C516   1.411       .  A
C512        C513   1.401       .  A
C512        H527   1.085       .  S
C513        C514   1.421       .  A
C513        C517   1.443       .  S
C514        C515   1.412       .  A
C515        C516   1.400       .  A
C515        H528   1.082       .  S
C516        C518   1.445       .  S
C517        N521   1.158       .  T
C518        N522   1.157       .  T
C519        N524   1.157       .  T
C520        N523   1.157       .  T
C529        C530   1.404       .  A
C529        C534   1.397       .  A
C529        C543   1.445       .  S
C530        C531   1.400       .  A
C530        C535   1.483       .  S
C531        C532   1.404       .  A
C531        H550   1.085       .  S
C532        C533   1.422       .  A
C532        C544   1.444       .  S
C533        C534   1.414       .  A
C534        H549   1.078       .  S
C535        C536   1.398       .  A
C535        C540   1.407       .  A
C536        C537   1.401       .  A
C536        H551   1.085       .  S
C537        C538   1.424       .  A
C537        C541   1.445       .  S
C538        C539   1.413       .  A
C539        C540   1.400       .  A
C539        H552   1.078       .  S
C540        C542   1.445       .  S
C541        N545   1.157       .  T
C542        N546   1.157       .  T
C543        N548   1.157       .  T
C544        N547   1.157       .  T
