geometry optimzed in LAMMPS
_audit_creation_date              2020-12-01 
_audit_creation_method            'lammps2cif' 
_symmetry_space_group_name_H-M    'P1' 
_symmetry_Int_Tables_number       1 
_symmetry_cell_setting            triclinic 
loop_ 
_symmetry_equiv_pos_as_xyz 
  x,y,z 
_cell_length_a                    36.22372743 
_cell_length_b                    37.03060621322856 
_cell_length_c                    37.99369839991618 
_cell_angle_alpha                 92.92693675728408 
_cell_angle_beta                  90.04481036790041 
_cell_angle_gamma                 90.08231218354655 
loop_ 
_atom_site_label 
_atom_site_type_symbol 
_atom_site_fract_x 
_atom_site_fract_y 
_atom_site_fract_z 
_atom_site_charge 
C1          C  0.20497042  0.20300298  0.22198757     0.86800
C2          C  0.22920569  0.18106790  0.24634834    -0.53400
C3          C  0.25303553  0.20115298  0.26736969     0.09800
C4          C  0.24946367  0.24254490  0.26282455     0.20700
C5          C  0.18517803  0.23068053  0.24720975    -0.54100
C6          C  0.20802284  0.25149475  0.26832817     0.09900
C7          C  0.23222761  0.22665781  0.20201218    -0.53600
C8          C  0.25578700  0.24713287  0.22301566     0.10400
H9          H  0.22829657  0.15174061  0.24620080     0.15000
H10         H  0.26810993  0.25935491  0.28014270     0.00700
H11         H  0.15583729  0.23593536  0.24751794     0.15300
H12         H  0.23204963  0.22787448  0.17351638     0.15100
C13         C  0.09732421  0.45981384  0.42082404     0.30400
C14         C  0.09658332  0.51990477  0.46676152     0.30400
C15         C  0.10078367  0.49671364  0.40430920    -0.05800
C16         C  0.06064497  0.46572729  0.44213031    -0.06600
C17         C  0.12676768  0.46151303  0.44972172    -0.06500
C18         C  0.10052355  0.52701217  0.42739616    -0.05800
C19         C  0.06042054  0.49686296  0.46613312    -0.06600
C20         C  0.12653637  0.49196179  0.47265031    -0.06500
C21         C  0.10575025  0.55669583  0.40746837    -0.31900
N22         N  0.10954400  0.54503040  0.37331962     0.14600
C23         C  0.10594745  0.50862105  0.37091819    -0.31900
H24         H  0.10903866  0.49204324  0.34681044     0.16600
C25         C  0.02377874  0.50783627  0.46906921    -0.30900
N26         N  0.00184150  0.48466437  0.44981725     0.13300
C27         C  0.02401104  0.46056151  0.43184068    -0.30900
C28         C  0.14217769  0.48210072  0.50377823    -0.31100
N29         N  0.15210590  0.44706216  0.50038666     0.13900
H30         H  0.14151746  0.49770975  0.52865383     0.16500
C31         C  0.14211537  0.43392291  0.46798039    -0.31200
H32         H  0.14135954  0.40542951  0.46004472     0.16500
H33         H  0.01468512  0.44225550  0.41060237     0.16500
H34         H  0.10824902  0.58462828  0.41701219     0.16600
H35         H  0.01425483  0.53303635  0.48152362     0.16500
C36         C  0.21694809  0.75305539  0.68624877     0.86800
C37         C  0.23642592  0.77734373  0.66045377    -0.53400
C38         C  0.25639868  0.75936822  0.63469445     0.09800
C39         C  0.25453466  0.71768280  0.63653073     0.20700
C40         C  0.19379514  0.72638772  0.66319156    -0.54100
C41         C  0.21285071  0.70789298  0.63703388     0.09900
C42         C  0.24841155  0.72923005  0.69993585    -0.53600
C43         C  0.26812857  0.71068276  0.67413148     0.10400
H44         H  0.23527003  0.80667606  0.66300240     0.15000
H45         H  0.27020115  0.70289070  0.61527829     0.00700
H46         H  0.16451149  0.72214605  0.66758920     0.15300
H47         H  0.25507216  0.72620743  0.72734967     0.15100
C48         C  0.45020175  0.09248513  0.42326215     0.30400
C49         C  0.51214946  0.08441637  0.46451553     0.30400
C50         C  0.44867594  0.10951274  0.46119162    -0.05800
C51         C  0.46048936  0.05247051  0.43125755    -0.06600
C52         C  0.48709529  0.10698136  0.40881396    -0.06500
C53         C  0.48032076  0.10660230  0.48148551    -0.05800
C54         C  0.49240311  0.04941317  0.45210936    -0.06600
C55         C  0.51801535  0.10407468  0.43018480    -0.06500
C56         C  0.47330470  0.12412170  0.51375105    -0.31900
N57         N  0.43814327  0.13655576  0.51395554     0.14600
C58         C  0.42251933  0.12696838  0.48233652    -0.31900
H59         H  0.39431502  0.13274730  0.47508286     0.16600
C60         C  0.49678347  0.01397216  0.45996452    -0.30900
N61         N  0.46851016  0.99458154  0.44552224     0.13300
C62         C  0.44611134  0.01724911  0.42782350    -0.30900
C63         C  0.54559762  0.12420302  0.41536772    -0.31100
N64         N  0.53364766  0.13659390  0.38433321     0.13900
H65         H  0.57232894  0.13056046  0.42673201     0.16500
C66         C  0.49784237  0.12604439  0.37998838    -0.31200
H67         H  0.48063710  0.13197631  0.35773884     0.16500
H68         H  0.42141657  0.00854461  0.41386740     0.16500
H69         H  0.49192377  0.12698881  0.53596278     0.16600
H70         H  0.51890381  0.00293427  0.47526353     0.16500
C71         C  0.75412242  0.25599905  0.17323205     0.86800
C72         C  0.77658040  0.28306118  0.19660949    -0.53400
C73         C  0.75640334  0.30511218  0.21920087     0.09800
C74         C  0.71405549  0.29910135  0.21456800     0.20700
C75         C  0.72925656  0.23636455  0.19877402    -0.54100
C76         C  0.70831920  0.25843798  0.22048355     0.09900
C77         C  0.72852730  0.28076265  0.15337087    -0.53600
C78         C  0.70687755  0.30284809  0.17441558     0.10400
H79         H  0.80615961  0.28628913  0.19478223     0.15000
H80         H  0.69634075  0.31657801  0.23196912     0.00700
H81         H  0.72816953  0.20708100  0.19943459     0.15300
H82         H  0.72737353  0.28075183  0.12480147     0.15100
C83         C  0.22916450  0.25099544  0.74119589     0.86800
C84         C  0.20631655  0.27188250  0.71495646    -0.53400
C85         C  0.22630630  0.29589904  0.69674280     0.09800
C86         C  0.26757525  0.29730016  0.70641513     0.20700
C87         C  0.26112299  0.23417712  0.71953788    -0.54100
C88         C  0.28096630  0.25790120  0.70054493     0.09900
C89         C  0.24824966  0.28081687  0.76473646    -0.53600
C90         C  0.26807462  0.30499629  0.74651080     0.10400
H91         H  0.17680594  0.26807529  0.71118951     0.15000
H92         H  0.28381319  0.31742041  0.69231354     0.00700
H93         H  0.26675495  0.20535875  0.71858948     0.15300
H94         H  0.24831072  0.28261323  0.79321121     0.15100
C95         C  0.86264047  0.50667815  0.47294001     0.30400
C96         C  0.86837785  0.46580783  0.41006562     0.30400
C97         C  0.84633397  0.52310944  0.44011791    -0.05800
C98         C  0.90301782  0.49817025  0.46005528    -0.06600
C99         C  0.84605820  0.46856155  0.47203115    -0.06500
C100        C  0.84777074  0.50227640  0.40862648    -0.05800
C101        C  0.90528314  0.47726795  0.42793553    -0.06600
C102        C  0.84757168  0.44835796  0.44024300    -0.06500
C103        C  0.82906288  0.52179248  0.38417289    -0.31900
N104        N  0.81901642  0.55425451  0.39927100     0.14600
C105        C  0.82972106  0.55550032  0.43343033    -0.31900
H106        H  0.82666575  0.57859737  0.45181722     0.16600
C107        C  0.94206586  0.47093163  0.42064706    -0.30900
N108        N  0.96278193  0.48709081  0.44680981     0.13300
C109        C  0.93951250  0.50367221  0.47092229    -0.30900
C110        C  0.83134893  0.41536739  0.44607081    -0.31100
N111        N  0.82234395  0.41472287  0.48057493     0.13900
H112        H  0.82759161  0.39272763  0.42731699     0.16500
C113        C  0.83116912  0.44691316  0.49677937    -0.31200
H114        H  0.82799274  0.45361929  0.52467809     0.16500
H115        H  0.94878009  0.51760474  0.49495211     0.16500
H116        H  0.82271862  0.51374453  0.35716377     0.16600
H117        H  0.95277856  0.45532512  0.39809960     0.16500
C118        C  0.75323787  0.79605444  0.20005942     0.86800
C119        C  0.72660942  0.82060352  0.22212508    -0.53400
C120        C  0.70173707  0.80217952  0.24150489     0.09800
C121        C  0.70518590  0.76097711  0.23657910     0.20700
C122        C  0.77065514  0.77127564  0.22735131    -0.54100
C123        C  0.74522439  0.75329250  0.24661860     0.09900
C124        C  0.72846599  0.76987373  0.17784142    -0.53600
C125        C  0.70312274  0.75208836  0.19681556     0.10400
H126        H  0.72759296  0.84991630  0.22240531     0.15000
H127        H  0.68465890  0.74597800  0.25192106     0.00700
H128        H  0.79985739  0.76632681  0.23036887     0.15300
H129        H  0.73129628  0.76516552  0.14951503     0.15100
C130        C  0.73873473  0.18698019  0.68648322     0.86800
C131        C  0.71460190  0.16040565  0.66397172    -0.53400
C132        C  0.69196373  0.17659022  0.64055442     0.09800
C133        C  0.69503121  0.21823454  0.64239649     0.20700
C134        C  0.75886223  0.20968939  0.66010593    -0.54100
C135        C  0.73631652  0.22612097  0.63731427     0.09900
C136        C  0.71009990  0.21291237  0.70417155    -0.53600
C137        C  0.68746167  0.22957164  0.68131802     0.10400
H138        H  0.71535169  0.13131851  0.66632304     0.15000
H139        H  0.67705991  0.23150138  0.62326908     0.00700
H140        H  0.78869113  0.21286508  0.65973410     0.15300
H141        H  0.70628789  0.21723614  0.73229337     0.15100
C142        C  0.44847989  0.86019142  0.47131430     0.30400
C143        C  0.50896565  0.86420084  0.42725616     0.30400
C144        C  0.44689459  0.83794124  0.43627050    -0.05800
C145        C  0.45725144  0.89891898  0.45806501    -0.06600
C146        C  0.48611845  0.84975511  0.48688172    -0.06500
C147        C  0.47742852  0.83943172  0.41441800    -0.05800
C148        C  0.48879933  0.90028834  0.43620739    -0.06600
C149        C  0.51669380  0.85180229  0.46485580    -0.06500
C150        C  0.46739660  0.82370376  0.38213375    -0.31900
N151        N  0.43175201  0.81296222  0.38408362     0.14600
C152        C  0.41871073  0.82204167  0.41668306    -0.31900
H153        H  0.39020278  0.81948168  0.42472851     0.16600
C154        C  0.49538248  0.93588586  0.42973315    -0.30900
N155        N  0.46772344  0.95635982  0.44380214     0.13300
C156        C  0.44470701  0.93472736  0.46187372    -0.30900
C157        C  0.54674252  0.84065915  0.48403717    -0.31100
N158        N  0.53490158  0.82967794  0.51561537     0.13900
H159        H  0.57526029  0.83952826  0.47569369     0.16500
C160        C  0.49816955  0.83624142  0.51819250    -0.31200
H161        H  0.48111815  0.82954851  0.54032290     0.16500
H162        H  0.42191520  0.94497132  0.47763766     0.16500
H163        H  0.48367539  0.82279068  0.35822827     0.16600
H164        H  0.51912245  0.94647579  0.41637502     0.16500
C165        C  0.21613343  0.73934116  0.14304302     0.86800
C166        C  0.19407835  0.71322218  0.16556638    -0.53400
C167        C  0.21531063  0.68912507  0.18236410     0.09800
C168        C  0.25661774  0.69185198  0.17396384     0.20700
C169        C  0.24454630  0.75595416  0.16939205    -0.54100
C170        C  0.26613640  0.73119618  0.18503020     0.09900
C171        C  0.23820011  0.71442047  0.11738372    -0.53600
C172        C  0.25932143  0.68964081  0.13338775     0.10400
H173        H  0.16479981  0.71465819  0.17080443     0.15000
H174        H  0.27379475  0.67176550  0.18725777     0.00700
H175        H  0.24648497  0.78475766  0.17612605     0.15300
H176        H  0.23661104  0.71581146  0.08893634     0.15100
C177        C  0.75707724  0.71704227  0.72144307     0.86800
C178        C  0.77903781  0.69104933  0.69596441    -0.53400
C179        C  0.75783397  0.66571178  0.67760770     0.09800
C180        C  0.71612463  0.66877027  0.68673787     0.20700
C181        C  0.72799747  0.73307458  0.69744688    -0.54100
C182        C  0.70648275  0.70829854  0.67941065     0.09900
C183        C  0.73593329  0.69174908  0.74499045    -0.53600
C184        C  0.71435670  0.66661500  0.72742857     0.10400
H185        H  0.80845626  0.69249208  0.69145170     0.15000
H186        H  0.69828769  0.64892577  0.67190251     0.00700
H187        H  0.72518289  0.76195079  0.69431044     0.15300
H188        H  0.73704068  0.69437694  0.77358465     0.15100
C189        C  0.51103442  0.46077306  0.06865151     0.30400
C190        C  0.45281079  0.50803413  0.06472257     0.30400
C191        C  0.51595924  0.49829351  0.08723926    -0.05800
C192        C  0.50126138  0.47210209  0.03036662    -0.06600
C193        C  0.47332253  0.44752950  0.08176620    -0.06500
C194        C  0.48659580  0.52200682  0.08543821    -0.05800
C195        C  0.47121746  0.49661104  0.02877320    -0.06600
C196        C  0.44429760  0.47139488  0.07981598    -0.06500
C197        C  0.49994337  0.55618333  0.09447280    -0.31900
N198        N  0.53632200  0.55365928  0.10225416     0.14600
C199        C  0.54655463  0.51857971  0.09727923    -0.31900
H200        H  0.57450746  0.50867316  0.09955205     0.16600
C201        C  0.46953790  0.50756409  0.99457276    -0.30900
N202        N  0.49600658  0.49045848  0.97504667     0.13300
C203        C  0.51570159  0.46877659  0.99617124    -0.30900
C204        C  0.41364057  0.45526020  0.09388539    -0.31100
N205        N  0.42311361  0.42197662  0.10430658     0.13900
H206        H  0.38671914  0.46751271  0.09752088     0.16500
C207        C  0.45963640  0.41701853  0.09707974    -0.31200
H208        H  0.47530037  0.39325032  0.10314083     0.16500
H209        H  0.53856614  0.45218055  0.98708226     0.16500
H210        H  0.48481274  0.58130216  0.09352262     0.16600
H211        H  0.45132542  0.52736373  0.98389961     0.16500
C212        C  0.52263222  0.51176949  0.84407984     0.30400
C213        C  0.45627769  0.47484141  0.84740345     0.30400
C214        C  0.52135223  0.47291011  0.82691458    -0.05800
C215        C  0.50896546  0.50383044  0.88201604    -0.06600
C216        C  0.48870120  0.52974876  0.82769254    -0.06500
C217        C  0.48759978  0.45503246  0.82722620    -0.05800
C218        C  0.47476063  0.48571590  0.88302514    -0.06600
C219        C  0.45540490  0.51084210  0.82855300    -0.06500
C220        C  0.49255492  0.42154577  0.81009340    -0.31900
N221        N  0.52870602  0.41789208  0.80158454     0.14600
C222        C  0.54668770  0.44839485  0.81280114    -0.31900
H223        H  0.57621431  0.45227405  0.81071198     0.16600
C224        C  0.46751605  0.47850812  0.91749079    -0.30900
N225        N  0.49650791  0.48980564  0.93774499     0.13300
C226        C  0.52213984  0.50515580  0.91674050    -0.30900
C227        C  0.43230712  0.52679891  0.80476100    -0.31100
N228        N  0.44907911  0.55617860  0.79239394     0.13900
H229        H  0.40597776  0.51708594  0.79487525     0.16500
C230        C  0.48380485  0.55815242  0.80569491    -0.31200
H231        H  0.50446653  0.57756175  0.79844614     0.16500
H232        H  0.54822197  0.51629256  0.92600065     0.16500
H233        H  0.47187423  0.40080169  0.80520188     0.16600
H234        H  0.44314431  0.46536288  0.92720925     0.16500
C235        C  0.06519167  0.92036937  0.01707809     0.42800
N236        N  0.02783679  0.93322929  0.97607347     0.01700
C237        C  0.03101427  0.08401199  0.87658900    -0.06200
H238        H  0.00905120  0.10955573  0.01337759     0.07200
C239        C  0.89130886  0.04477155  0.00198006    -0.06500
Co240      Co  0.05214319  0.99793194  0.93914475     0.74200
N241        N  0.02298078  0.06395511  0.97816637    -0.25700
Co242      Co  0.98239000  0.06141461  0.93893889     0.74100
C243        C  0.90326843  0.08023693  0.01676689     0.42900
N244        N  0.91993764  0.95489088  0.97819947     0.01300
N245        N  0.94140289  0.06151753  0.97676858     0.01400
N246        N  0.07665342  0.04276292  0.87822263    -0.46500
H247        H  0.10276593  0.96855878  0.00616659     0.07200
N248        N  0.04933715  0.03941237  0.97869532     0.01700
N249        N  0.94161387  0.05646185  0.90011866     0.01500
C250        C  0.90664015  0.06440728  0.85561161     0.43100
N251        N  0.94647993  0.93050173  0.97717490    -0.25200
C252        C  0.07784358  0.94815618  0.87481020    -0.06100
N253        N  0.03462253  0.90905870  0.99958563    -0.46300
N254        N  0.93610214  0.07795117  0.87376762    -0.46500
C255        C  0.06599466  0.91332820  0.85829785     0.42800
N256        N  0.05050648  0.03648744  0.90138954     0.01700
N257        N  0.94521767  0.92636512  0.90058152    -0.25200
N258        N  0.05251623  0.95940666  0.97664454    -0.25700
N259        N  0.91796306  0.94996935  0.90139615     0.01300
H260        H  0.95231493  0.87441143  0.87329107     0.07200
H261        H  0.87072089  0.01514347  0.86773704     0.07300
N262        N  0.02364778  0.06036725  0.90112346    -0.25700
N263        N  0.91658791  0.03550415  0.97734763    -0.25300
N264        N  0.02793557  0.92995712  0.89957594     0.01700
C265        C  0.05855475  0.07325961  0.02558960     0.43100
C266        C  0.94182694  0.90877526  0.00392777    -0.06600
N267        N  0.91709122  0.03009070  0.90065678    -0.25300
H268        H  0.86599058  0.03018812  0.00640608     0.07300
N269        N  0.07128936  0.04404434  0.00653815    -0.46600
H270        H  0.95909404  0.88596541  0.00951764     0.07200
C271        C  0.90122134  0.90891520  0.86275412     0.42900
C272        C  0.07738686  0.95358128  0.00176382    -0.06100
Co273      Co  0.98690390  0.92934201  0.93817515     0.73800
N274        N  0.89677405  0.95105684  0.00471528    -0.46300
C275        C  0.06645085  0.07235167  0.86134906     0.43200
N276        N  0.03500490  0.90388973  0.87538168    -0.46300
Co277      Co  0.91703299  0.99267527  0.93948523     0.73900
C278        C  0.89398937  0.03277696  0.87356603    -0.06600
C279        C  0.02686415  0.08688180  0.00647217    -0.06100
N280        N  0.05278111  0.95608377  0.90000738    -0.25700
N281        N  0.93447315  0.08856066  0.99978468    -0.46400
H282        H  0.01545407  0.10840498  0.87280170     0.07200
C283        C  0.93709522  0.89941628  0.87700796    -0.06600
Cl284      Cl  0.98460100  0.99531988  0.93882155    -0.49600
C285        C  0.90914863  0.92275306  0.02246537     0.43000
H286        H  0.10241683  0.96384416  0.87026899     0.07200
N287        N  0.89079838  0.94032263  0.87943942    -0.46300
C288        C  0.77782335  0.74679250  0.74329237    -0.11600
C289        C  0.75814021  0.77202698  0.76581314     0.03900
C290        C  0.77695817  0.79918195  0.78553639    -0.12100
C291        C  0.81530647  0.80216545  0.78378080     0.18700
C292        C  0.83523731  0.77723966  0.76219607    -0.09200
C293        C  0.81667563  0.75003407  0.74221581    -0.02100
H294        H  0.76152195  0.81821998  0.80237142     0.05300
C295        C  0.83423941  0.83128915  0.80486913     0.20700
H296        H  0.83339706  0.73154791  0.72637558     0.10400
C297        C  0.84234412  0.82633154  0.84038736    -0.15500
C298        C  0.86283018  0.85220545  0.86022997     0.03400
C299        C  0.87558116  0.88349096  0.84437717    -0.10800
C300        C  0.86574102  0.88933626  0.80946256    -0.00900
C301        C  0.84519113  0.86348613  0.78966703    -0.06000
H302        H  0.83331286  0.80196047  0.85247056     0.06400
H303        H  0.87506474  0.91351450  0.79722026     0.09800
Br304      Br  0.88813451  0.77908556  0.75982720    -0.05700
Br305      Br  0.70531883  0.77156562  0.77149169    -0.02700
Br306      Br  0.87219431  0.84392262  0.90890336     0.00200
Br307      Br  0.83332299  0.87272698  0.74176988    -0.04200
C308        C  0.68956366  0.64234576  0.74699380    -0.11600
C309        C  0.70283949  0.62039095  0.77368582     0.03900
C310        C  0.67799408  0.60074738  0.79385559    -0.12100
C311        C  0.63975227  0.60272452  0.78815373     0.18700
C312        C  0.62665490  0.62459799  0.76151414    -0.09200
C313        C  0.65142124  0.64385136  0.74119970    -0.02100
H314        H  0.68859612  0.58314270  0.81339497     0.05300
C315        C  0.61416002  0.57785412  0.80591906     0.20700
H316        H  0.64067154  0.66061477  0.72122397     0.10400
C317        C  0.59768529  0.58753486  0.83858205    -0.15500
C318        C  0.56949438  0.56607332  0.85282424     0.03400
C319        C  0.55814816  0.53314234  0.83504493    -0.10800
C320        C  0.57407345  0.52555499  0.80133630    -0.00900
C321        C  0.60229044  0.54621381  0.78769255    -0.06000
H322        H  0.60526258  0.61294468  0.85206932     0.06400
H323        H  0.56281554  0.50498182  0.78334752     0.09800
Br324      Br  0.57494604  0.62845036  0.75145800    -0.05700
Br325      Br  0.75470501  0.61444596  0.78207886    -0.02700
Br326      Br  0.54407821  0.58671238  0.89318355     0.00200
Br327      Br  0.62159416  0.53158926  0.74203844    -0.04200
C328        C  0.08947744  0.89576946  0.03480404    -0.11600
C329        C  0.10230442  0.86365805  0.01749630     0.03900
C330        C  0.12374633  0.83982050  0.03595711    -0.12100
C331        C  0.13260836  0.84770051  0.07136224     0.18700
C332        C  0.12076158  0.88024387  0.08833627    -0.09200
C333        C  0.09934794  0.90419688  0.06987458    -0.02100
H334        H  0.13326032  0.81488382  0.02282439     0.05300
C335        C  0.15326238  0.82089301  0.09030835     0.20700
H336        H  0.08966788  0.92900211  0.08311639     0.10400
C337        C  0.19172974  0.82201558  0.09017527    -0.15500
C338        C  0.21226534  0.79573073  0.10647631     0.03400
C339        C  0.19409697  0.76781243  0.12417398    -0.10800
C340        C  0.15508717  0.76667704  0.12292467    -0.00900
C341        C  0.13486317  0.79289352  0.10638804    -0.06000
H342        H  0.20584079  0.84321999  0.07683395     0.06400
H343        H  0.13938311  0.74515191  0.13356794     0.09800
Br344      Br  0.13240009  0.89242840  0.13672810    -0.05700
Br345      Br  0.09240951  0.85159156  0.96860614    -0.02700
Br346      Br  0.26494785  0.79980924  0.10234499     0.00200
Br347      Br  0.08198237  0.78893969  0.10556310    -0.04200
C348        C  0.41978771  0.53370265  0.06909592    -0.11600
C349        C  0.40819188  0.54604921  0.10352623     0.03900
C350        C  0.37898091  0.57018652  0.10774021    -0.12100
C351        C  0.35955795  0.58194973  0.07877245     0.18700
C352        C  0.36942997  0.56885300  0.04474424    -0.09200
C353        C  0.39869464  0.54434422  0.04026631    -0.02100
H354        H  0.37109242  0.57981371  0.13411648     0.05300
C355        C  0.32930583  0.60798154  0.08562119     0.20700
H356        H  0.40332414  0.53260445  0.01413874     0.10400
C357        C  0.33420543  0.64405859  0.07713296    -0.15500
C358        C  0.31034789  0.67104139  0.09062061     0.03400
C359        C  0.28162601  0.66197028  0.11369666    -0.10800
C360        C  0.27529026  0.62555643  0.11997231    -0.00900
C361        C  0.29862809  0.59858513  0.10594624    -0.06000
H362        H  0.35781501  0.65151690  0.06157031     0.06400
H363        H  0.25242420  0.61808768  0.13630793     0.09800
Br364      Br  0.34279647  0.58266406  0.00395753    -0.05700
Br365      Br  0.42926633  0.53055037  0.14691100    -0.02700
Br366      Br  0.32056337  0.71981907  0.07904601     0.00200
Br367      Br  0.28829092  0.54934758  0.11612059    -0.04200
C368        C  0.55648023  0.80938398  0.53957589    -0.11600
C369        C  0.57392094  0.77679447  0.52809881     0.03900
C370        C  0.59594473  0.75814827  0.55136389    -0.12100
C371        C  0.60094449  0.77122846  0.58629376     0.18700
C372        C  0.58310280  0.80349407  0.59802045    -0.09200
C373        C  0.56069915  0.82204681  0.57478895    -0.02100
H374        H  0.60952581  0.73341045  0.54208178     0.05300
C375        C  0.62714684  0.75229124  0.60903792     0.20700
H376        H  0.54745371  0.84701893  0.58383735     0.10400
C377        C  0.66502026  0.75457693  0.60195579    -0.15500
C378        C  0.69095523  0.73848921  0.62348068     0.03400
C379        C  0.67925415  0.71987113  0.65297706    -0.10800
C380        C  0.64125615  0.71619252  0.65914971    -0.00900
C381        C  0.61521503  0.73187258  0.63720587    -0.06000
H382        H  0.67448078  0.76941883  0.57981890     0.06400
H383        H  0.63170963  0.70219540  0.68162710     0.09800
Br384      Br  0.59050085  0.82439232  0.64473899    -0.05700
Br385      Br  0.56756172  0.75580056  0.48127332    -0.02700
Br386      Br  0.74215130  0.74258476  0.61135716     0.00200
Br387      Br  0.56375748  0.72441901  0.64629834    -0.04200
C388        C  0.40954316  0.80019472  0.35499517    -0.11600
C389        C  0.39157557  0.82471074  0.33381656     0.03900
C390        C  0.36868780  0.81181200  0.30637387    -0.12100
C391        C  0.36309727  0.77453083  0.30003495     0.18700
C392        C  0.38119606  0.74998059  0.32130604    -0.09200
C393        C  0.40433814  0.76298572  0.34860346    -0.02100
H394        H  0.35485009  0.83088244  0.29016696     0.05300
C395        C  0.33797838  0.76202059  0.27132981     0.20700
H396        H  0.41787080  0.74417864  0.36528929     0.10400
C397        C  0.35246314  0.74387190  0.24112064    -0.15500
C398        C  0.32948664  0.73314217  0.21285087     0.03400
C399        C  0.29156127  0.74137242  0.21431980    -0.10800
C400        C  0.27716138  0.75941070  0.24462272    -0.00900
C401        C  0.29989681  0.76926785  0.27320485    -0.06000
H402        H  0.38179075  0.73834245  0.23944388     0.06400
H403        H  0.24799916  0.76550653  0.24622644     0.09800
Br404      Br  0.37361017  0.69877377  0.31520987    -0.05700
Br405      Br  0.39689732  0.87589371  0.34246563    -0.02700
Br406      Br  0.35161392  0.70897794  0.17241841     0.00200
Br407      Br  0.27750506  0.79121640  0.31475646    -0.04200
C408        C  0.88523555  0.08380175  0.82943681    -0.11600
C409        C  0.90184697  0.10689275  0.80553028     0.03900
C410        C  0.87982881  0.12428174  0.78122467    -0.12100
C411        C  0.84149174  0.11906806  0.78056667     0.18700
C412        C  0.82505066  0.09586063  0.80408724    -0.09200
C413        C  0.84682831  0.07857691  0.82821804    -0.02100
H414        H  0.89254954  0.14207318  0.76296753     0.05300
C415        C  0.81836630  0.13858299  0.75607799     0.20700
H416        H  0.83331670  0.06129451  0.84639159     0.10400
C417        C  0.81625583  0.12656383  0.72066810    -0.15500
C418        C  0.79128233  0.14218145  0.69780870     0.03400
C419        C  0.76649379  0.16947546  0.71080151    -0.10800
C420        C  0.77108369  0.18286007  0.74605836    -0.00900
C421        C  0.79659551  0.16774971  0.76841688    -0.06000
H422        H  0.83395915  0.10474931  0.71084539     0.06400
H423        H  0.75619747  0.20600666  0.75675042     0.09800
Br424      Br  0.77283335  0.08676451  0.80412700    -0.05700
Br425      Br  0.95422587  0.11461454  0.80374634    -0.02700
Br426      Br  0.79419674  0.12583275  0.64901227     0.00200
Br427      Br  0.80134577  0.18830583  0.81566109    -0.04200
C428        C  0.65764736  0.25433366  0.69465642    -0.11600
C429        C  0.65302352  0.28963313  0.68294009     0.03900
C430        C  0.62872506  0.31359032  0.70076391    -0.12100
C431        C  0.60832519  0.30292110  0.72984006     0.18700
C432        C  0.61057562  0.26691132  0.73968702    -0.09200
C433        C  0.63530045  0.24314166  0.72239169    -0.02100
H434        H  0.62654821  0.34110765  0.69256093     0.05300
C435        C  0.58583347  0.33017844  0.74995148     0.20700
H436        H  0.63749510  0.21578730  0.73101877     0.10400
C437        C  0.55557263  0.34589975  0.73350044    -0.15500
C438        C  0.53570909  0.37403788  0.75060954     0.03400
C439        C  0.54601648  0.38676334  0.78477096    -0.10800
C440        C  0.57600201  0.37081625  0.80135226    -0.00900
C441        C  0.59600497  0.34284998  0.78425602    -0.06000
H442        H  0.54803355  0.33688735  0.70687899     0.06400
H443        H  0.58440940  0.38092475  0.82739393     0.09800
Br444      Br  0.58029958  0.24894377  0.77636671    -0.05700
Br445      Br  0.68033433  0.30797710  0.64457457    -0.02700
Br446      Br  0.49720092  0.39660653  0.72503546     0.00200
Br447      Br  0.63860945  0.32497200  0.80787326    -0.04200
C448        C  0.88923142  0.90583510  0.05137532    -0.11600
C449        C  0.86731483  0.92618260  0.07584628     0.03900
C450        C  0.84810016  0.90870446  0.10203789    -0.12100
C451        C  0.85020577  0.87108445  0.10443002     0.18700
C452        C  0.87216949  0.85076773  0.08013298    -0.09200
C453        C  0.89175408  0.86822371  0.05422194    -0.02100
H454        H  0.83107682  0.92451057  0.12048937     0.05300
C455        C  0.82664476  0.85338490  0.13032994     0.20700
H456        H  0.90798265  0.85202397  0.03544302     0.10400
C457        C  0.78836210  0.85474036  0.12613252    -0.15500
C458        C  0.76468776  0.83757099  0.14899798     0.03400
C459        C  0.77916840  0.81748937  0.17678963    -0.10800
C460        C  0.81788599  0.81784351  0.18174361    -0.00900
C461        C  0.84140176  0.83565695  0.15899104    -0.06000
H462        H  0.77675757  0.86909104  0.10457141     0.06400
H463        H  0.83059884  0.80494332  0.20341591     0.09800
Br464      Br  0.87417645  0.79893397  0.07949088    -0.05700
Br465      Br  0.86333481  0.97788952  0.07578383    -0.02700
Br466      Br  0.71276312  0.84288022  0.13990827     0.00200
Br467      Br  0.89341454  0.83622299  0.16884484    -0.04200
C468        C  0.67867902  0.72390397  0.18081204    -0.11600
C469        C  0.64404697  0.73244922  0.16676931     0.03900
C470        C  0.62114358  0.70478791  0.15280546    -0.12100
C471        C  0.63222180  0.66844329  0.15285535     0.18700
C472        C  0.66735806  0.66009333  0.16620740    -0.09200
C473        C  0.69032936  0.68781599  0.17980153    -0.02100
H474        H  0.59443556  0.71158776  0.14215414     0.05300
C475        C  0.60668909  0.63965465  0.13928515     0.20700
H476        H  0.71734349  0.68114984  0.18981026     0.10400
C477        C  0.61614728  0.61852517  0.10889334    -0.15500
C478        C  0.59305429  0.59049679  0.09602533     0.03400
C479        C  0.55986701  0.58324319  0.11367004    -0.10800
C480        C  0.54987684  0.60505610  0.14338833    -0.00900
C481        C  0.57297359  0.63301236  0.15632496    -0.06000
H482        H  0.64158241  0.62392986  0.09511812     0.06400
H483        H  0.52435598  0.59968080  0.15701667     0.09800
Br484      Br  0.68463316  0.61125238  0.16795551    -0.05700
Br485      Br  0.62705482  0.78140994  0.16610232    -0.02700
Br486      Br  0.60686127  0.56434097  0.05319462     0.00200
Br487      Br  0.55804053  0.66025998  0.19823450    -0.04200
C488        C  0.67454896  0.81901410  0.26658677    -0.11600
C489        C  0.68457881  0.84468444  0.29380753     0.03900
C490        C  0.65867287  0.85538880  0.31975380    -0.12100
C491        C  0.62295543  0.84069439  0.31923559     0.18700
C492        C  0.61285993  0.81564058  0.29185490    -0.09200
C493        C  0.63846481  0.80516151  0.26589995    -0.02100
H494        H  0.66676617  0.87430834  0.34106891     0.05300
C495        C  0.59696690  0.84984861  0.34835124     0.20700
H496        H  0.63040751  0.78506386  0.24564948     0.10400
C497        C  0.56933302  0.87546290  0.34366025    -0.15500
C498        C  0.54081382  0.88092649  0.36835166     0.03400
C499        C  0.54116543  0.86260532  0.40051264    -0.10800
C500        C  0.56786604  0.83501440  0.40313629    -0.00900
C501        C  0.59585875  0.82923589  0.37822909    -0.06000
H502        H  0.56845029  0.88938006  0.31926548     0.06400
H503        H  0.56557821  0.81539506  0.42294472     0.09800
Br504      Br  0.56505221  0.79324824  0.29003121    -0.05700
Br505      Br  0.73386642  0.86325827  0.29928270    -0.02700
Br506      Br  0.49943673  0.90745653  0.35147072     0.00200
Br507      Br  0.62996894  0.79039768  0.38443334    -0.04200
C508        C  0.77414914  0.64079317  0.64925026    -0.19500
C509        C  0.76723980  0.60318017  0.64680851     0.03900
C510        C  0.78508960  0.58099029  0.62086741    -0.12100
C511        C  0.80946524  0.59546023  0.59635353     0.18700
C512        C  0.81484274  0.63321408  0.59768512    -0.09200
C513        C  0.79809090  0.65522167  0.62430673    -0.02100
H514        H  0.77953516  0.55219770  0.61951736     0.05300
C515        C  0.82476653  0.57151134  0.56687891     0.20700
H516        H  0.80304235  0.68409041  0.62488986     0.10400
C517        C  0.79983569  0.55458392  0.54343144    -0.15500
C518        C  0.81172807  0.53354155  0.51406700     0.03400
C519        C  0.85031031  0.52870130  0.50674359    -0.10800
C520        C  0.87534461  0.54493770  0.53114966    -0.00900
C521        C  0.86293977  0.56582432  0.56101877    -0.06000
H522        H  0.77047397  0.55834910  0.54769463     0.06400
H523        H  0.90457621  0.54167206  0.52737946     0.09800
Br524      Br  0.84181628  0.65645531  0.56169649    -0.05700
Br525      Br  0.73467526  0.58020810  0.67860653    -0.02700
Br526      Br  0.77204581  0.51315144  0.48540474     0.00200
Br527      Br  0.89914716  0.58490424  0.59379020    -0.04200
C528        C  0.75075820  0.25079299  0.61148637    -0.11600
C529        C  0.77153371  0.28161973  0.62241522     0.03900
C530        C  0.78376553  0.30517044  0.59748157    -0.12100
C531        C  0.77604354  0.29828361  0.56169800     0.18700
C532        C  0.75681961  0.26675318  0.55050988    -0.09200
C533        C  0.74376877  0.24343793  0.57552938    -0.02100
H534        H  0.79860105  0.32948492  0.60609209     0.05300
C535        C  0.78660970  0.32573278  0.53707789     0.20700
H536        H  0.72845700  0.21941008  0.56695178     0.10400
C537        C  0.82354872  0.32817016  0.52674474    -0.15500
C538        C  0.83546653  0.35707385  0.50751221     0.03400
C539        C  0.81014321  0.38368967  0.49809481    -0.10800
C540        C  0.77309120  0.38100210  0.50799498    -0.00900
C541        C  0.76119710  0.35225822  0.52757065    -0.06000
H542        H  0.84336099  0.30832723  0.53485832     0.06400
H543        H  0.75375854  0.40184184  0.50126268     0.09800
Br544      Br  0.74846089  0.25457824  0.50149886    -0.05700
Br545      Br  0.78163958  0.29452006  0.67111992    -0.02700
Br546      Br  0.88703240  0.36092919  0.49756552     0.00200
Br547      Br  0.71075243  0.35141836  0.54287305    -0.04200
C548        C  0.80608268  0.58418865  0.38010766    -0.11600
C549        C  0.77665318  0.60643215  0.39228753     0.03900
C550        C  0.76558107  0.63557123  0.37267050    -0.12100
C551        C  0.78340276  0.64264841  0.34100550     0.18700
C552        C  0.81241003  0.62031115  0.32874688    -0.09200
C553        C  0.82355184  0.59147060  0.34828115    -0.02100
H554        H  0.74272209  0.65239559  0.38179495     0.05300
C555        C  0.77082515  0.67237454  0.31984203     0.20700
H556        H  0.84623187  0.57468465  0.33870086     0.10400
C557        C  0.78934767  0.70565304  0.32258355    -0.15500
C558        C  0.78129551  0.73276216  0.29940134     0.03400
C559        C  0.75450820  0.72636058  0.27277144    -0.10800
C560        C  0.73504582  0.69347655  0.27128952    -0.00900
C561        C  0.74312041  0.66653539  0.29436378    -0.06000
H562        H  0.81057536  0.71025584  0.34242101     0.06400
H563        H  0.71389753  0.68822652  0.25162189     0.09800
Br564      Br  0.83709617  0.62785430  0.28504111    -0.05700
Br565      Br  0.74915010  0.59687930  0.43388982    -0.02700
Br566      Br  0.80629684  0.77825627  0.30672133     0.00200
Br567      Br  0.71687660  0.62153083  0.28901830    -0.04200
C568        C  0.09172465  0.09501476  0.84107968    -0.11600
C569        C  0.13030670  0.08868855  0.83865867     0.03900
C570        C  0.15294231  0.11349293  0.82238001    -0.12100
C571        C  0.13792581  0.14412804  0.80785055     0.18700
C572        C  0.09962452  0.14949384  0.80836914    -0.09200
C573        C  0.07689761  0.12514173  0.82493275    -0.02100
H574        H  0.18248854  0.10903128  0.82123236     0.05300
C575        C  0.16248267  0.17029448  0.79194111     0.20700
H576        H  0.04747924  0.13013483  0.82529865     0.10400
C577        C  0.16852976  0.16740162  0.75571867    -0.15500
C578        C  0.18987078  0.19293636  0.73920432     0.03400
C579        C  0.20605907  0.22248104  0.75919165    -0.10800
C580        C  0.19956552  0.22478838  0.79593547    -0.00900
C581        C  0.17829450  0.19896093  0.81220221    -0.06000
H582        H  0.15609742  0.14527491  0.74010413     0.06400
H583        H  0.21004129  0.24667798  0.81274378     0.09800
Br584      Br  0.07737536  0.19008196  0.78715679    -0.05700
Br585      Br  0.15478653  0.04757287  0.85689224    -0.02700
Br586      Br  0.19496330  0.18481767  0.68915162     0.00200
Br587      Br  0.17081157  0.20425027  0.86220427    -0.04200
C588        C  0.29090573  0.33360777  0.76447434    -0.11600
C589        C  0.27591995  0.35885280  0.78955699     0.03900
C590        C  0.29932174  0.38232418  0.80926214    -0.12100
C591        C  0.33763122  0.38209726  0.80343123     0.18700
C592        C  0.35223018  0.35796469  0.77696753    -0.09200
C593        C  0.32891988  0.33395992  0.75796743    -0.02100
H594        H  0.28753511  0.40088151  0.82913094     0.05300
C595        C  0.36222005  0.40720043  0.82445671     0.20700
H596        H  0.34067473  0.31493080  0.73847214     0.10400
C597        C  0.39146346  0.39311952  0.84380301    -0.15500
C598        C  0.42015843  0.41555837  0.85672148     0.03400
C599        C  0.42023570  0.45267980  0.84922828    -0.10800
C600        C  0.38636958  0.46729269  0.83878668    -0.00900
C601        C  0.35839007  0.44505513  0.82434307    -0.06000
H602        H  0.39309430  0.36426858  0.84704518     0.06400
H603        H  0.38192646  0.49607542  0.84049091     0.09800
Br604      Br  0.40369282  0.35707956  0.76485730    -0.05700
Br605      Br  0.22361626  0.36374134  0.79623179    -0.02700
Br606      Br  0.45848972  0.39339993  0.88316180     0.00200
Br607      Br  0.31819517  0.46811389  0.80138744    -0.04200
C608        C  0.88179202  0.10606380  0.03969817    -0.11600
C609        C  0.88910520  0.14376687  0.04180407     0.03900
C610        C  0.86727986  0.16674896  0.06329477    -0.12100
C611        C  0.83882978  0.15315830  0.08374014     0.18700
C612        C  0.83170040  0.11575116  0.08207414    -0.09200
C613        C  0.85290585  0.09265769  0.06000983    -0.02100
H614        H  0.87277023  0.19556697  0.06437233     0.05300
C615        C  0.81749033  0.17859629  0.10697554     0.20700
H616        H  0.84712318  0.06394876  0.05934699     0.10400
C617        C  0.77952069  0.18260334  0.10156761    -0.15500
C618        C  0.75866769  0.20668173  0.12300093     0.03400
C619        C  0.77620569  0.22911591  0.14951500    -0.10800
C620        C  0.81429673  0.22363316  0.15537825    -0.00900
C621        C  0.83475554  0.19899311  0.13446280    -0.06000
H622        H  0.76589637  0.16644570  0.08080740     0.06400
H623        H  0.82873227  0.23691607  0.17716675     0.09800
Br624      Br  0.79468348  0.09462695  0.11074517    -0.05700
Br625      Br  0.92769397  0.16678303  0.01632771    -0.02700
Br626      Br  0.70614018  0.20553497  0.11548482     0.00200
Br627      Br  0.88594343  0.19272736  0.14603793    -0.04200
C628        C  0.54232570  0.43552683  0.07960307    -0.11600
C629        C  0.54968126  0.43194264  0.11624587     0.03900
C630        C  0.57876110  0.41076652  0.12711066    -0.12100
C631        C  0.60051377  0.39076822  0.10304543     0.18700
C632        C  0.59255937  0.39227306  0.06672416    -0.09200
C633        C  0.56408370  0.41497983  0.05524589    -0.02100
H634        H  0.58395527  0.40914055  0.15509849     0.05300
C635        C  0.62871755  0.36664660  0.11807446     0.20700
H636        H  0.55835849  0.41532063  0.02745465     0.10400
C637        C  0.61644114  0.34010023  0.14043869    -0.15500
C638        C  0.64117763  0.32055650  0.16035828     0.03400
C639        C  0.67942729  0.32693300  0.15811375    -0.10800
C640        C  0.69190021  0.35319027  0.13532054    -0.00900
C641        C  0.66695600  0.37333842  0.11581971    -0.06000
H642        H  0.58710191  0.33507577  0.14297492     0.06400
H643        H  0.72124782  0.35809514  0.13277667     0.09800
Br644      Br  0.61789062  0.36192679  0.03226324    -0.05700
Br645      Br  0.52125385  0.45415861  0.15450313    -0.02700
Br646      Br  0.62060814  0.28474557  0.18895416     0.00200
Br647      Br  0.68627181  0.41083042  0.08806701    -0.04200
C648        C  0.87088440  0.44178798  0.37560069    -0.11600
C649        C  0.87466615  0.40394815  0.37619484     0.03900
C650        C  0.85749532  0.38166780  0.35015386    -0.12100
C651        C  0.84269248  0.39619219  0.31966588     0.18700
C652        C  0.84923595  0.43322621  0.31468821    -0.09200
C653        C  0.86343672  0.45553808  0.34250568    -0.02100
H654        H  0.85549919  0.35304663  0.35420055     0.05300
C655        C  0.82053661  0.37281651  0.29403529     0.20700
H656        H  0.86904995  0.48351922  0.33799396     0.10400
C657        C  0.78612466  0.38507664  0.28193451    -0.15500
C658        C  0.76460591  0.36419553  0.25760300     0.03400
C659        C  0.77606834  0.32896709  0.24658298    -0.10800
C660        C  0.80950644  0.31617265  0.26044828    -0.00900
C661        C  0.83223232  0.33791556  0.28239607    -0.06000
H662        H  0.77620571  0.41154958  0.29087155     0.06400
H663        H  0.81900280  0.28908824  0.25326111     0.09800
Br664      Br  0.84044782  0.45452477  0.27043894    -0.05700
Br665      Br  0.90536643  0.38165722  0.40995552    -0.02700
Br666      Br  0.72211452  0.38694588  0.23841448     0.00200
Br667      Br  0.88042312  0.31911707  0.29219343    -0.04200
C668        C  0.54518724  0.07883662  0.48904439    -0.11600
C669        C  0.58250856  0.08140397  0.47866973     0.03900
C670        C  0.60926617  0.09167209  0.50394107    -0.12100
C671        C  0.60013784  0.09423031  0.53991707     0.18700
C672        C  0.56545848  0.08110160  0.55023826    -0.09200
C673        C  0.53848272  0.07299270  0.52475739    -0.02100
H674        H  0.63695366  0.09787201  0.49539636     0.05300
C675        C  0.62452230  0.11416954  0.56572217     0.20700
H676        H  0.51128421  0.06495524  0.53322903     0.10400
C677        C  0.60967022  0.14411134  0.58491143    -0.15500
C678        C  0.63073220  0.16438395  0.60957610     0.03400
C679        C  0.66812513  0.15552346  0.61495050    -0.10800
C680        C  0.68318952  0.12569221  0.59548655    -0.00900
C681        C  0.66179270  0.10504388  0.57108668    -0.06000
H682        H  0.58111774  0.15161104  0.58089406     0.06400
H683        H  0.71183946  0.11843921  0.59920439     0.09800
Br684      Br  0.55310045  0.07534948  0.59873884    -0.05700
Br685      Br  0.59970379  0.06152276  0.43393188    -0.02700
Br686      Br  0.60534617  0.20173474  0.63663214     0.00200
Br687      Br  0.68437841  0.06395929  0.54706022    -0.04200
C688        C  0.41970811  0.15446395  0.54351103    -0.11600
C689        C  0.43579617  0.18424432  0.56262188     0.03900
C690        C  0.41678552  0.20114010  0.59102094    -0.12100
C691        C  0.38178187  0.18894818  0.60070811     0.18700
C692        C  0.36570900  0.15933183  0.58169108    -0.09200
C693        C  0.38469268  0.14232715  0.55343842    -0.02100
H694        H  0.42887252  0.22451123  0.60498803     0.05300
C695        C  0.36057712  0.20959824  0.62812966     0.20700
H696        H  0.37203433  0.11958008  0.53898684     0.10400
C697        C  0.34078572  0.23993640  0.61848646    -0.15500
C698        C  0.31596490  0.25744922  0.64180389     0.03400
C699        C  0.31121178  0.24496431  0.67620338    -0.10800
C700        C  0.33338023  0.21597457  0.68638029    -0.00900
C701        C  0.35729121  0.19794384  0.66256741    -0.06000
H702        H  0.34321223  0.24885314  0.59185257     0.06400
H703        H  0.33107277  0.20623060  0.71268335     0.09800
Br704      Br  0.31717490  0.14228068  0.59248108    -0.05700
Br705      Br  0.48186382  0.20514332  0.54919959    -0.02700
Br706      Br  0.28751888  0.29518131  0.62237130     0.00200
Br707      Br  0.38320259  0.15628871  0.67754337    -0.04200
C708        C  0.55670315  0.15546974  0.36002737    -0.11600
C709        C  0.54470673  0.18665729  0.34326437     0.03900
C710        C  0.56871634  0.20456953  0.32085381    -0.12100
C711        C  0.60489086  0.19223568  0.31488031     0.18700
C712        C  0.61697279  0.16136003  0.33160425    -0.09200
C713        C  0.59306357  0.14333689  0.35381702    -0.02100
H714        H  0.55923381  0.22845756  0.30825005     0.05300
C715        C  0.62962602  0.21113703  0.29056447     0.20700
H716        H  0.60289482  0.11952073  0.36628508     0.10400
C717        C  0.65563262  0.23637739  0.30412646    -0.15500
C718        C  0.68117399  0.25252933  0.28189804     0.03400
C719        C  0.68109765  0.24331385  0.24537390    -0.10800
C720        C  0.65528487  0.21764502  0.23210976    -0.00900
C721        C  0.62932208  0.20221914  0.25414649    -0.06000
H722        H  0.65660382  0.24288970  0.33223521     0.06400
H723        H  0.65497464  0.20991141  0.20421771     0.09800
Br724      Br  0.66596927  0.14277646  0.32450129    -0.05700
Br725      Br  0.49717849  0.20786941  0.35172262    -0.02700
Br726      Br  0.71766527  0.28403205  0.30337862     0.00200
Br727      Br  0.59420849  0.16863487  0.23345991    -0.04200
C728        C  0.08745749  0.88881798  0.83351324    -0.11600
C729        C  0.07265044  0.85613475  0.81825549     0.03900
C730        C  0.09431350  0.83388949  0.79562869    -0.12100
C731        C  0.13070447  0.84322461  0.78766013     0.18700
C732        C  0.14549111  0.87573329  0.80236335    -0.09200
C733        C  0.12400921  0.89810416  0.82500369    -0.02100
H734        H  0.08263109  0.80909014  0.78401664     0.05300
C735        C  0.15221626  0.81937255  0.76281398     0.20700
H736        H  0.13627918  0.92283089  0.83595668     0.10400
C737        C  0.14413797  0.81914558  0.72683436    -0.15500
C738        C  0.16411759  0.79751827  0.70229778     0.03400
C739        C  0.19348873  0.77526445  0.71346404    -0.10800
C740        C  0.20055134  0.77513023  0.75012469    -0.00900
C741        C  0.18016292  0.79664091  0.77449697    -0.06000
H742        H  0.12218516  0.83619641  0.71771634     0.06400
H743        H  0.22182810  0.75867206  0.76076716     0.09800
Br744      Br  0.19462119  0.89110769  0.79151886    -0.05700
Br745      Br  0.02297195  0.84004002  0.82583205    -0.02700
Br746      Br  0.14927058  0.80027359  0.65387208     0.00200
Br747      Br  0.19083571  0.79353332  0.82375607    -0.04200
C748        C  0.29760145  0.68451431  0.68327106    -0.11600
C749        C  0.33380308  0.68528223  0.66937380     0.03900
C750        C  0.36143498  0.66333468  0.68307838    -0.12100
C751        C  0.35336528  0.63970289  0.70974579     0.18700
C752        C  0.31672047  0.63672427  0.72140472    -0.09200
C753        C  0.28944091  0.65927896  0.70861133    -0.02100
H754        H  0.38951184  0.66541657  0.67358941     0.05300
C755        C  0.38342281  0.62049064  0.72757470     0.20700
H756        H  0.26161390  0.65731697  0.71878515     0.10400
C757        C  0.39595980  0.63457448  0.76046568    -0.15500
C758        C  0.41968573  0.61458955  0.78112494     0.03400
C759        C  0.43170630  0.58011563  0.76879644    -0.10800
C760        C  0.42039865  0.56666647  0.73525154    -0.00900
C761        C  0.39645696  0.58656892  0.71462839    -0.06000
H762        H  0.38558708  0.66036440  0.77094237     0.06400
H763        H  0.42880271  0.53980059  0.72593661     0.09800
Br764      Br  0.30285454  0.60231826  0.75512732    -0.05700
Br765      Br  0.34809395  0.71698830  0.63351518    -0.02700
Br766      Br  0.43116175  0.63323099  0.82782837     0.00200
Br767      Br  0.37976121  0.56519989  0.67042937    -0.04200
C768        C  0.41600996  0.84984417  0.49539223    -0.11600
C769        C  0.41076310  0.81289710  0.50371092     0.03900
C770        C  0.38141690  0.80279960  0.52486943    -0.12100
C771        C  0.35606427  0.82802174  0.53860303     0.18700
C772        C  0.36070725  0.86463649  0.53094217    -0.09200
C773        C  0.39025290  0.87521025  0.50945440    -0.02100
H774        H  0.37844197  0.77465581  0.53095522     0.05300
C775        C  0.32668931  0.81477796  0.56232535     0.20700
H776        H  0.39265899  0.90328341  0.50404920     0.10400
C777        C  0.33013947  0.82169543  0.59880802    -0.15500
C778        C  0.30757347  0.80403885  0.62256100     0.03400
C779        C  0.28045105  0.77896741  0.61000412    -0.10800
C780        C  0.27657899  0.77246228  0.57348124    -0.00900
C781        C  0.29933114  0.79009795  0.54975124    -0.06000
H782        H  0.35185001  0.83950464  0.60894650     0.06400
H783        H  0.25591189  0.75345401  0.56337684     0.09800
Br784      Br  0.32683702  0.90087865  0.54862904    -0.05700
Br785      Br  0.44183886  0.77319190  0.48737180    -0.02700
Br786      Br  0.31819372  0.81210705  0.67189272     0.00200
Br787      Br  0.29250151  0.77930795  0.50026591    -0.04200
C788        C  0.16006549  0.42553101  0.52944256    -0.11600
C789        C  0.13133987  0.41299782  0.55050058     0.03900
C790        C  0.13964715  0.39307540  0.57968311    -0.12100
C791        C  0.17645002  0.38577245  0.58811144     0.18700
C792        C  0.20514953  0.39794751  0.56669398    -0.09200
C793        C  0.19676895  0.41791549  0.53757164    -0.02100
H794        H  0.11748127  0.38326524  0.59578972     0.05300
C795        C  0.18466814  0.36363077  0.61807710     0.20700
H796        H  0.21878034  0.42756551  0.52120455     0.10400
C797        C  0.18059397  0.32614726  0.61361924    -0.15500
C798        C  0.19308638  0.30361632  0.63937619     0.03400
C799        C  0.20969527  0.31875244  0.67034143    -0.10800
C800        C  0.21244304  0.35643062  0.67534071    -0.00900
C801        C  0.19979732  0.37895074  0.64950708    -0.06000
H802        H  0.16934679  0.31432250  0.58921545     0.06400
H803        H  0.22497416  0.36828826  0.69913451     0.09800
Br804      Br  0.25594828  0.38701116  0.57577849    -0.05700
Br805      Br  0.08063522  0.42259399  0.53987769    -0.02700
Br806      Br  0.19098308  0.25262834  0.62846171     0.00200
Br807      Br  0.20448551  0.43030732  0.65756661    -0.04200
C808        C  0.20035076  0.66726875  0.21065341    -0.11600
C809        C  0.17942203  0.68331633  0.23871449     0.03900
C810        C  0.16439207  0.66177772  0.26411860    -0.12100
C811        C  0.17045971  0.62449349  0.26267446     0.18700
C812        C  0.19228250  0.60848988  0.23558718    -0.09200
C813        C  0.20709672  0.62993817  0.20980816    -0.02100
H814        H  0.14847403  0.67426045  0.28559152     0.05300
C815        C  0.15520494  0.60332640  0.29091918     0.20700
H816        H  0.22361125  0.61731705  0.18900386     0.10400
C817        C  0.11942103  0.58904969  0.28750231    -0.15500
C818        C  0.10372697  0.57033097  0.31483243     0.03400
C819        C  0.12384865  0.56606501  0.34593649    -0.10800
C820        C  0.15941285  0.58077897  0.34949501    -0.00900
C821        C  0.17520850  0.59930356  0.32218725    -0.06000
H822        H  0.10366860  0.59272683  0.26370434     0.06400
H823        H  0.17504776  0.57723215  0.37338230     0.09800
Br824      Br  0.20282648  0.55769257  0.23324173    -0.05700
Br825      Br  0.17251977  0.73461318  0.24571308    -0.02700
Br826      Br  0.05436433  0.55218551  0.30967677     0.00200
Br827      Br  0.22407894  0.61867197  0.32846070    -0.04200
C828        C  0.10430947  0.55309730  0.49221768    -0.11600
C829        C  0.08995988  0.55810098  0.52705980     0.03900
C830        C  0.10491750  0.58492947  0.55070515    -0.12100
C831        C  0.13536935  0.60590393  0.54141489     0.18700
C832        C  0.15057535  0.60025837  0.50775720    -0.09200
C833        C  0.13563326  0.57413773  0.48416770    -0.02100
H834        H  0.09407880  0.58804008  0.57725356     0.05300
C835        C  0.15351160  0.63128566  0.56767179     0.20700
H836        H  0.15082754  0.56858950  0.46004840     0.10400
C837        C  0.18676448  0.62110830  0.58331562    -0.15500
C838        C  0.20674295  0.64542106  0.60557935     0.03400
C839        C  0.19374035  0.68108992  0.61235777    -0.10800
C840        C  0.15995766  0.69088824  0.59705982    -0.00900
C841        C  0.13992987  0.66638863  0.57502899    -0.06000
H842        H  0.19734595  0.59402734  0.57796445     0.06400
H843        H  0.14913495  0.71791318  0.60210506     0.09800
Br844      Br  0.19352352  0.62616905  0.49334889    -0.05700
Br845      Br  0.05499788  0.52620874  0.54719421    -0.02700
Br846      Br  0.24992294  0.62696201  0.62746026     0.00200
Br847      Br  0.09458687  0.68213462  0.55480417    -0.04200
C848        C  0.07628952  0.08986894  0.05779114    -0.11600
C849        C  0.09333214  0.06892067  0.08327703     0.03900
C850        C  0.11140995  0.08596010  0.11229842    -0.12100
C851        C  0.11269003  0.12379837  0.11674525     0.18700
C852        C  0.09498383  0.14470057  0.09175448    -0.09200
C853        C  0.07673230  0.12771686  0.06287095    -0.02100
H854        H  0.12476967  0.06960458  0.13141721     0.05300
C855        C  0.13500289  0.14100977  0.14589124     0.20700
H856        H  0.06394507  0.14430067  0.04361444     0.10400
C857        C  0.17342377  0.13749901  0.14495097    -0.15500
C858        C  0.19589585  0.15550116  0.17026632     0.03400
C859        C  0.18025743  0.17911863  0.19691631    -0.10800
C860        C  0.14119769  0.17991720  0.19913169    -0.00900
C861        C  0.11885113  0.16108892  0.17420902    -0.06000
H862        H  0.18611968  0.12084013  0.12404361     0.06400
H863        H  0.12708990  0.19448730  0.22029150     0.09800
Br864      Br  0.09716316  0.19655986  0.09454487    -0.05700
Br865      Br  0.09140391  0.01706282  0.08089863    -0.02700
Br866      Br  0.24766714  0.14539887  0.16671727     0.00200
Br867      Br  0.06629020  0.16262669  0.18056423    -0.04200
C868        C  0.39943435  0.39785813  0.12291859    -0.11600
C869        C  0.36329916  0.38930745  0.11104605     0.03900
C870        C  0.34075265  0.36650307  0.13017895    -0.12100
C871        C  0.35338001  0.35175056  0.16125528     0.18700
C872        C  0.38942309  0.36001221  0.17308440    -0.09200
C873        C  0.41208710  0.38281244  0.15397891    -0.02100
H874        H  0.31341153  0.35961951  0.12036024     0.05300
C875        C  0.32972677  0.32523402  0.17893082     0.20700
H876        H  0.43963721  0.38910353  0.16354935     0.10400
C877        C  0.33033090  0.28905462  0.16637943    -0.15500
C878        C  0.30737087  0.26321343  0.18083295     0.03400
C879        C  0.28265701  0.27332119  0.20845487    -0.10800
C880        C  0.28300197  0.30946903  0.22181695    -0.00900
C881        C  0.30607949  0.33535945  0.20717031    -0.06000
H882        H  0.34891523  0.28084029  0.14512181     0.06400
H883        H  0.26460122  0.31783903  0.24314949     0.09800
Br884      Br  0.40885682  0.34020911  0.21489691    -0.05700
Br885      Br  0.34422056  0.40553533  0.06748256    -0.02700
Br886      Br  0.31352541  0.21425308  0.16317220     0.00200
Br887      Br  0.30394515  0.38433869  0.22593022    -0.04200
C888        C  0.41707471  0.10425157  0.40062672    -0.11600
C889        C  0.40844488  0.14178692  0.39854863     0.03900
C890        C  0.37931582  0.15299320  0.37769362    -0.12100
C891        C  0.35869013  0.12857279  0.35651379     0.18700
C892        C  0.36772275  0.09144140  0.35691273    -0.09200
C893        C  0.39615926  0.07956851  0.37918369    -0.02100
H894        H  0.37347798  0.18165671  0.37700192     0.05300
C895        C  0.33095766  0.14410573  0.33212602     0.20700
H896        H  0.40295704  0.05122600  0.37807596     0.10400
C897        C  0.34343323  0.16890104  0.30797905    -0.15500
C898        C  0.31883533  0.18847935  0.28775316     0.03400
C899        C  0.28033710  0.18322225  0.29067009    -0.10800
C900        C  0.26775665  0.15795916  0.31451556    -0.00900
C901        C  0.29250620  0.13905397  0.33553543    -0.06000
H902        H  0.37281233  0.17363088  0.30534586     0.06400
H903        H  0.23837758  0.15343705  0.31733124     0.09800
Br904      Br  0.34447231  0.05647382  0.32517533    -0.05700
Br905      Br  0.43594441  0.18109672  0.42129354    -0.02700
Br906      Br  0.34039416  0.22100988  0.25612630     0.00200
Br907      Br  0.27230165  0.10875484  0.37016696    -0.04200
C908        C  0.10680585  0.42731461  0.39487210    -0.11600
C909        C  0.09143341  0.39195941  0.39522450     0.03900
C910        C  0.10637160  0.36340479  0.37349958    -0.12100
C911        C  0.13809250  0.36826938  0.35281684     0.18700
C912        C  0.15455835  0.40262102  0.35388151    -0.09200
C913        C  0.13937846  0.43100623  0.37467124    -0.02100
H914        H  0.09416154  0.33672104  0.37402511     0.05300
C915        C  0.15527458  0.33740482  0.33163855     0.20700
H916        H  0.15485820  0.45603442  0.37649967     0.10400
C917        C  0.15792650  0.33915176  0.29485150    -0.15500
C918        C  0.17638728  0.31230136  0.27427394     0.03400
C919        C  0.19286541  0.28269051  0.29024782    -0.10800
C920        C  0.19027704  0.28079324  0.32697547    -0.00900
C921        C  0.17163523  0.30770049  0.34761734    -0.06000
H922        H  0.14580464  0.36179560  0.28207281     0.06400
H923        H  0.20210097  0.25789799  0.33957054     0.09800
Br924      Br  0.20018013  0.41167681  0.33004913    -0.05700
Br925      Br  0.05492305  0.37832184  0.42848183    -0.02700
Br926      Br  0.17855984  0.31747328  0.22427941     0.00200
Br927      Br  0.16994497  0.30307461  0.39762097    -0.04200
loop_ 
_geom_bond_atom_site_label_1 
_geom_bond_atom_site_label_2 
_geom_bond_distance 
_geom_bond_site_symmetry_2 
_ccdc_geom_bond_type 
C1            C2   1.538       .  S
C1            C7   1.544       .  S
C1            C5   1.545       .  S
C1          C859   1.550       .  S
C2            H9   1.086       .  S
C2            C3   1.368       .  D
C3            C4   1.557       .  S
C3          C899   1.504       .  S
C4            C8   1.548       .  S
C4            C6   1.550       .  S
C4           H10   1.110       .  S
C5           H11   1.081       .  S
C5            C6   1.363       .  D
C6          C919   1.495       .  S
C7           H12   1.086       .  S
C7            C8   1.369       .  D
C8          C879   1.499       .  S
C13          C15   1.537       .  S
C13          C17   1.529       .  S
C13          C16   1.566       .  S
C13         C908   1.555       .  S
C14          C18   1.539       .  S
C14          C20   1.525       .  S
C14          C19   1.562       .  S
C14         C828   1.550       .  S
C15          C23   1.377       .  A
C15          C18   1.388       .  A
C16          C27   1.393       .  A
C16          C19   1.433       .  A
C17          C31   1.381       .  A
C17          C20   1.389       .  A
C18          C21   1.379       .  A
C19          C25   1.392       .  A
C20          C28   1.377       .  A
C21          N22   1.354       .  A
C21          H34   1.082       .  S
N22          C23   1.353       .  A
N22         C819   1.428       .  S
C23          H24   1.082       .  S
C25          N26   1.355       .  A
C25          H35   1.082       .  S
N26          C27   1.360       .  A
N26         N108   1.423   1_455  S
C27          H33   1.081       .  S
C28          N29   1.347       .  A
C28          H30   1.083       .  S
N29          C31   1.350       .  A
N29         C788   1.424       .  S
C31          H32   1.083       .  S
C36          C37   1.535       .  S
C36          C42   1.548       .  S
C36          C40   1.534       .  S
C36         C739   1.544       .  S
C37          H44   1.086       .  S
C37          C38   1.364       .  D
C38          C39   1.550       .  S
C38         C779   1.495       .  S
C39          C43   1.545       .  S
C39          C41   1.553       .  S
C39          H45   1.109       .  S
C40          H46   1.086       .  S
C40          C41   1.366       .  D
C41         C839   1.498       .  S
C42          H47   1.080       .  S
C42          C43   1.370       .  D
C43         C748   1.495       .  S
C48          C50   1.544       .  S
C48          C52   1.551       .  S
C48          C51   1.573       .  S
C48         C888   1.552       .  S
C49          C53   1.539       .  S
C49          C55   1.541       .  S
C49          C54   1.532       .  S
C49         C668   1.537       .  S
C50          C58   1.382       .  A
C50          C53   1.388       .  A
C51          C62   1.404       .  A
C51          C54   1.409       .  A
C52          C66   1.389       .  A
C52          C55   1.390       .  A
C53          C56   1.381       .  A
C54          C60   1.370       .  A
C55          C63   1.383       .  A
C56          N57   1.355       .  A
C56          H69   1.081       .  S
N57          C58   1.358       .  A
N57         C688   1.440       .  S
C58          H59   1.082       .  S
C60          N61   1.350   1_545  A
C60          H70   1.082       .  S
N61          C62   1.369   1_565  A
N61         N155   1.414       .  S
C62          H68   1.080       .  S
C63          N64   1.358       .  A
C63          H65   1.081       .  S
N64          C66   1.362       .  A
N64         C708   1.451       .  S
C66          H67   1.082       .  S
C71          C72   1.536       .  S
C71          C77   1.530       .  S
C71          C75   1.534       .  S
C71         C619   1.535       .  S
C72          H79   1.081       .  S
C72          C73   1.367       .  D
C73          C74   1.558       .  S
C73         C659   1.508       .  S
C74          C78   1.561       .  S
C74          C76   1.548       .  S
C74          H80   1.107       .  S
C75          H81   1.087       .  S
C75          C76   1.363       .  D
C76         C719   1.495       .  S
C77          H82   1.086       .  S
C77          C78   1.364       .  D
C78         C639   1.492       .  S
C83          C84   1.535       .  S
C83          C89   1.547       .  S
C83          C87   1.535       .  S
C83         C579   1.535       .  S
C84          H91   1.086       .  S
C84          C85   1.362       .  D
C85          C86   1.539       .  S
C85         C799   1.474       .  S
C86          C90   1.536       .  S
C86          C88   1.544       .  S
C86          H92   1.108       .  S
C87          H93   1.086       .  S
C87          C88   1.369       .  D
C88         C699   1.498       .  S
C89          H94   1.081       .  S
C89          C90   1.364       .  D
C90         C588   1.482       .  S
C95          C97   1.533       .  S
C95          C99   1.532       .  S
C95          C98   1.570       .  S
C95         C519   1.552       .  S
C96         C100   1.547       .  S
C96         C102   1.541       .  S
C96         C101   1.548       .  S
C96         C648   1.548       .  S
C97         C105   1.378       .  A
C97         C100   1.391       .  A
C98         C109   1.396       .  A
C98         C101   1.414       .  A
C99         C113   1.376       .  A
C99         C102   1.389       .  A
C100        C103   1.383       .  A
C101        C107   1.379       .  A
C102        C110   1.383       .  A
C103        N104   1.356       .  A
C103        H116   1.078       .  S
N104        C105   1.353       .  A
N104        C548   1.436       .  S
C105        H106   1.082       .  S
C107        N108   1.359       .  A
C107        H117   1.081       .  S
N108        C109   1.368       .  A
C109        H115   1.079       .  S
C110        N111   1.353       .  A
C110        H112   1.081       .  S
N111        C113   1.351       .  A
N111        C539   1.427       .  S
C113        H114   1.083       .  S
C118        C119   1.545       .  S
C118        C124   1.540       .  S
C118        C122   1.553       .  S
C118        C459   1.538       .  S
C119        H126   1.086       .  S
C119        C120   1.367       .  D
C120        C121   1.533       .  S
C120        C488   1.486       .  S
C121        C125   1.531       .  S
C121        C123   1.530       .  S
C121        H127   1.111       .  S
C122        H128   1.081       .  S
C122        C123   1.370       .  D
C123        C559   1.482       .  S
C124        H129   1.086       .  S
C124        C125   1.358       .  D
C125        C468   1.475       .  S
C130        C131   1.541       .  S
C130        C136   1.545       .  S
C130        C134   1.526       .  S
C130        C419   1.532       .  S
C131        H138   1.086       .  S
C131        C132   1.370       .  D
C132        C133   1.544       .  S
C132        C679   1.490       .  S
C133        C137   1.541       .  S
C133        C135   1.538       .  S
C133        H139   1.109       .  S
C134        H140   1.087       .  S
C134        C135   1.357       .  D
C135        C528   1.470       .  S
C136        H141   1.081       .  S
C136        C137   1.365       .  D
C137        C428   1.490       .  S
C142        C144   1.531       .  S
C142        C146   1.543       .  S
C142        C145   1.576       .  S
C142        C768   1.550       .  S
C143        C147   1.528       .  S
C143        C149   1.548       .  S
C143        C148   1.547       .  S
C143        C499   1.547       .  S
C144        C152   1.377       .  A
C144        C147   1.386       .  A
C145        C156   1.403       .  A
C145        C148   1.416       .  A
C146        C160   1.384       .  A
C146        C149   1.393       .  A
C147        C150   1.379       .  A
C148        C154   1.374       .  A
C149        C157   1.385       .  A
C150        N151   1.354       .  A
C150        H163   1.082       .  S
N151        C152   1.352       .  A
N151        C388   1.427       .  S
C152        H153   1.083       .  S
C154        N155   1.351       .  A
C154        H164   1.082       .  S
N155        C156   1.365       .  A
C156        H162   1.078       .  S
C157        N158   1.356       .  A
C157        H159   1.081       .  S
N158        C160   1.356       .  A
N158        C368   1.440       .  S
C160        H161   1.082       .  S
C165        C166   1.546       .  S
C165        C171   1.534       .  S
C165        C169   1.541       .  S
C165        C339   1.530       .  S
C166        H173   1.080       .  S
C166        C167   1.362       .  D
C167        C168   1.534       .  S
C167        C808   1.481       .  S
C168        C172   1.543       .  S
C168        C170   1.534       .  S
C168        H174   1.111       .  S
C169        H175   1.086       .  S
C169        C170   1.365       .  D
C170        C399   1.478       .  S
C171        H176   1.086       .  S
C171        C172   1.362       .  D
C172        C359   1.479       .  S
C177        C178   1.551       .  S
C177        C183   1.533       .  S
C177        C181   1.533       .  S
C177        C288   1.540       .  S
C178        H185   1.081       .  S
C178        C179   1.374       .  D
C179        C180   1.553       .  S
C179        C508   1.504       .  S
C180        C184   1.553       .  S
C180        C182   1.544       .  S
C180        H186   1.109       .  S
C181        H187   1.087       .  S
C181        C182   1.361       .  D
C182        C379   1.486       .  S
C183        H188   1.086       .  S
C183        C184   1.362       .  D
C184        C308   1.495       .  S
C189        C191   1.536       .  S
C189        C193   1.542       .  S
C189        C192   1.575       .  S
C189        C628   1.541       .  S
C190        C194   1.530       .  S
C190        C196   1.531       .  S
C190        C195   1.560       .  S
C190        C348   1.533       .  S
C191        C199   1.381       .  A
C191        C194   1.384       .  A
C192        C203   1.401   1_554  A
C192        C195   1.421       .  A
C193        C207   1.388       .  A
C193        C196   1.379       .  A
C194        C197   1.381       .  A
C195        C201   1.382   1_554  A
C196        C204   1.381       .  A
C197        N198   1.355       .  A
C197        H210   1.082       .  S
N198        C199   1.355       .  A
N198        C479   1.437       .  S
C199        H200   1.082       .  S
C201        N202   1.351       .  A
C201        H211   1.081       .  S
N202        C203   1.365       .  A
N202        N225   1.416       .  S
C203        H209   1.078       .  S
C204        N205   1.358       .  A
C204        H206   1.082       .  S
N205        C207   1.362       .  A
N205        C868   1.448       .  S
C207        H208   1.082       .  S
C212        C214   1.550       .  S
C212        C216   1.544       .  S
C212        C215   1.566       .  S
C212        C319   1.557       .  S
C213        C217   1.536       .  S
C213        C219   1.546       .  S
C213        C218   1.544       .  S
C213        C599   1.545       .  S
C214        C222   1.381       .  A
C214        C217   1.390       .  A
C215        C226   1.401       .  A
C215        C218   1.410       .  A
C216        C230   1.388       .  A
C216        C219   1.395       .  A
C217        C220   1.383       .  A
C218        C224   1.375       .  A
C219        C227   1.386       .  A
C220        N221   1.354       .  A
C220        H233   1.081       .  S
N221        C222   1.353       .  A
N221        C439   1.434       .  S
C222        H223   1.082       .  S
C224        N225   1.355       .  A
C224        H234   1.082       .  S
N225        C226   1.367       .  A
C226        H232   1.082       .  S
C227        N228   1.351       .  A
C227        H229   1.079       .  S
N228        C230   1.356       .  A
N228        C759   1.438       .  S
C230        H231   1.082       .  S
C235        N253   1.346   1_554  A
C235        C272   1.455       .  S
C235        C328   1.456       .  S
N236        N253   1.320       .  A
N236        N258   1.317       .  A
N236       Co273   2.066   1_455  S
C237        N262   1.338       .  A
C237        H282   1.081       .  S
C237        C275   1.465       .  S
H238        C279   1.081       .  S
C239        N263   1.342   1_554  A
C239        H268   1.081       .  S
C239        C243   1.467       .  S
Co240       N258   2.067       .  S
Co240       N248   2.096   1_565  S
Co240       N280   2.092       .  S
Co240       N256   2.076   1_565  S
Co240      Cl284   2.448   1_455  S
N241        C279   1.343   1_556  A
N241        N248   1.320       .  A
N241       Co242   2.091   1_455  S
Co242       N245   2.067       .  S
Co242       N262   2.073   1_655  S
Co242       N249   2.088       .  S
Co242      Cl284   2.449   1_545  S
C243        N281   1.345   1_554  A
C243        C608   1.482       .  S
N244        N251   1.319       .  A
N244        N274   1.325   1_556  A
N244       Co277   2.084       .  S
N245        N263   1.318       .  A
N245        N281   1.320       .  A
N246        C275   1.349       .  A
N246        N256   1.322       .  A
H247        C272   1.081       .  S
N248        N269   1.327   1_556  A
N249        N267   1.320       .  A
N249        N254   1.326       .  A
C250        N254   1.352       .  A
C250        C278   1.459       .  S
C250        C408   1.476       .  S
N251        C266   1.339   1_556  A
N251       Co273   2.083       .  S
C252        N280   1.342       .  A
C252        H286   1.081       .  S
C252        C255   1.469       .  S
C255        N276   1.352       .  A
C255        C728   1.494       .  S
N256        N262   1.316       .  A
N257        C283   1.339       .  A
N257        N259   1.319       .  A
N257       Co273   2.077       .  S
N258        C272   1.338   1_556  A
N259        N287   1.326       .  A
N259       Co277   2.089       .  S
H260        C283   1.081       .  S
H261        C278   1.081       .  S
N263       Co277   2.086   1_545  S
N264        N276   1.324       .  A
N264        N280   1.320       .  A
N264       Co273   2.090   1_455  S
C265        N269   1.352       .  A
C265        C279   1.462       .  S
C265        C848   1.486       .  S
C266        H270   1.081       .  S
C266        C285   1.460       .  S
N267        C278   1.334       .  A
N267       Co277   2.075   1_545  S
C271        N287   1.350       .  A
C271        C283   1.458       .  S
C271        C299   1.472       .  S
Co273      Cl284   2.444       .  S
N274        C285   1.352       .  A
C275        C568   1.483       .  S
Co277      Cl284   2.450       .  S
C285        C448   1.480       .  S
C288        C289   1.427       .  A
C288        C293   1.413       .  A
C289        C290   1.399       .  A
C289       Br305   1.926       .  S
C290        C291   1.395       .  A
C290        H294   1.084       .  S
C291        C292   1.404       .  A
C291        C295   1.478       .  S
C292        C293   1.401       .  A
C292       Br304   1.920       .  S
C293        H296   1.076       .  S
C295        C297   1.402       .  A
C295        C301   1.408       .  A
C297        C298   1.400       .  A
C297        H302   1.083       .  S
C298        C299   1.410       .  A
C298       Br306   1.920       .  S
C299        C300   1.401       .  A
C300        C301   1.400       .  A
C300        H303   1.083       .  S
C301       Br307   1.917       .  S
C308        C309   1.416       .  A
C308        C313   1.401       .  A
C309        C310   1.408       .  A
C309       Br325   1.920       .  S
C310        C311   1.405       .  A
C310        H314   1.083       .  S
C311        C312   1.411       .  A
C311        C315   1.492       .  S
C312        C313   1.402       .  A
C312       Br324   1.918       .  S
C313        H316   1.078       .  S
C315        C317   1.407       .  A
C315        C321   1.397       .  A
C317        C318   1.418       .  A
C317        H322   1.083       .  S
C318        C319   1.423       .  A
C318       Br326   1.915       .  S
C319        C320   1.420       .  A
C320        C321   1.392       .  A
C320        H323   1.077       .  S
C321       Br327   1.923       .  S
C328        C329   1.409       .  A
C328        C333   1.399       .  A
C329        C330   1.392       .  A
C329       Br345   1.922   1_554  S
C330        C331   1.399       .  A
C330        H334   1.084       .  S
C331        C332   1.405       .  A
C331        C335   1.462       .  S
C332        C333   1.395       .  A
C332       Br344   1.917       .  S
C333        H336   1.083       .  S
C335        C337   1.394       .  A
C335        C341   1.399       .  A
C337        C338   1.395       .  A
C337        H342   1.084       .  S
C338        C339   1.423       .  A
C338       Br346   1.921       .  S
C339        C340   1.414       .  A
C340        C341   1.392       .  A
C340        H343   1.074       .  S
C341       Br347   1.921       .  S
C348        C349   1.427       .  A
C348        C353   1.408       .  A
C349        C350   1.390       .  A
C349       Br365   1.930       .  S
C350        C351   1.395       .  A
C350        H354   1.085       .  S
C351        C352   1.404       .  A
C351        C355   1.475       .  S
C352        C353   1.401       .  A
C352       Br364   1.917       .  S
C353        H356   1.077       .  S
C355        C357   1.401       .  A
C355        C361   1.407       .  A
C357        C358   1.400       .  A
C357        H362   1.084       .  S
C358        C359   1.412       .  A
C358       Br366   1.916       .  S
C359        C360   1.400       .  A
C360        C361   1.395       .  A
C360        H363   1.080       .  S
C361       Br367   1.919       .  S
C368        C369   1.412       .  A
C368        C373   1.403       .  A
C369        C370   1.399       .  A
C369       Br385   1.918       .  S
C370        C371   1.401       .  A
C370        H374   1.084       .  S
C371        C372   1.411       .  A
C371        C375   1.484       .  S
C372        C373   1.404       .  A
C372       Br384   1.918       .  S
C373        H376   1.083       .  S
C375        C377   1.402       .  A
C375        C381   1.409       .  A
C377        C378   1.399       .  A
C377        H382   1.084       .  S
C378        C379   1.411       .  A
C378       Br386   1.919       .  S
C379        C380   1.404       .  A
C380        C381   1.404       .  A
C380        H383   1.078       .  S
C381       Br387   1.918       .  S
C388        C389   1.404       .  A
C388        C393   1.399       .  A
C389        C390   1.396       .  A
C389       Br405   1.916       .  S
C390        C391   1.404       .  A
C390        H394   1.084       .  S
C391        C392   1.409       .  A
C391        C395   1.476       .  S
C392        C393   1.399       .  A
C392       Br404   1.918       .  S
C393        H396   1.083       .  S
C395        C397   1.403       .  A
C395        C401   1.407       .  A
C397        C398   1.399       .  A
C397        H402   1.084       .  S
C398        C399   1.408       .  A
C398       Br406   1.915       .  S
C399        C400   1.403       .  A
C400        C401   1.396       .  A
C400        H403   1.082       .  S
C401       Br407   1.919       .  S
C408        C409   1.413       .  A
C408        C413   1.405       .  A
C409        C410   1.402       .  A
C409       Br425   1.920       .  S
C410        C411   1.402       .  A
C410        H414   1.083       .  S
C411        C412   1.403       .  A
C411        C415   1.469       .  S
C412        C413   1.390       .  A
C412       Br424   1.921       .  S
C413        H416   1.082       .  S
C415        C417   1.397       .  A
C415        C421   1.400       .  A
C417        C418   1.400       .  A
C417        H422   1.084       .  S
C418        C419   1.423       .  A
C418       Br426   1.924       .  S
C419        C420   1.414       .  A
C420        C421   1.392       .  A
C420        H423   1.075       .  S
C421       Br427   1.921       .  S
C428        C429   1.412       .  A
C428        C433   1.408       .  A
C429        C430   1.401       .  A
C429       Br445   1.915       .  S
C430        C431   1.403       .  A
C430        H434   1.084       .  S
C431        C432   1.406       .  A
C431        C435   1.480       .  S
C432        C433   1.397       .  A
C432       Br444   1.919       .  S
C433        H436   1.083       .  S
C435        C437   1.403       .  A
C435        C441   1.411       .  A
C437        C438   1.400       .  A
C437        H442   1.083       .  S
C438        C439   1.408       .  A
C438       Br446   1.916       .  S
C439        C440   1.401       .  A
C440        C441   1.398       .  A
C440        H443   1.083       .  S
C441       Br447   1.920       .  S
C448        C449   1.412       .  A
C448        C453   1.406       .  A
C449        C450   1.400       .  A
C449       Br465   1.920       .  S
C450        C451   1.403       .  A
C450        H454   1.084       .  S
C451        C452   1.408       .  A
C451        C455   1.481       .  S
C452        C453   1.398       .  A
C452       Br464   1.920       .  S
C453        H456   1.083       .  S
C455        C457   1.397       .  A
C455        C461   1.406       .  A
C457        C458   1.397       .  A
C457        H462   1.084       .  S
C458        C459   1.423       .  A
C458       Br466   1.924       .  S
C459        C460   1.415       .  A
C460        C461   1.402       .  A
C460        H463   1.076       .  S
C461       Br467   1.921       .  S
C468        C469   1.406       .  A
C468        C473   1.401       .  A
C469        C470   1.400       .  A
C469       Br485   1.917       .  S
C470        C471   1.405       .  A
C470        H474   1.083       .  S
C471        C472   1.410       .  A
C471        C475   1.483       .  S
C472        C473   1.398       .  A
C472       Br484   1.919       .  S
C473        H476   1.083       .  S
C475        C477   1.404       .  A
C475        C481   1.410       .  A
C477        C478   1.400       .  A
C477        H482   1.083       .  S
C478        C479   1.409       .  A
C478       Br486   1.918       .  S
C479        C480   1.402       .  A
C480        C481   1.399       .  A
C480        H483   1.083       .  S
C481       Br487   1.920       .  S
C488        C489   1.415       .  A
C488        C493   1.403       .  A
C489        C490   1.404       .  A
C489       Br505   1.920       .  S
C490        C491   1.403       .  A
C490        H494   1.083       .  S
C491        C492   1.406       .  A
C491        C495   1.480       .  S
C492        C493   1.395       .  A
C492       Br504   1.919       .  S
C493        H496   1.082       .  S
C495        C497   1.398       .  A
C495        C501   1.400       .  A
C497        C498   1.404       .  A
C497        H502   1.084       .  S
C498        C499   1.428       .  A
C498       Br506   1.921       .  S
C499        C500   1.415       .  A
C500        C501   1.397       .  A
C500        H503   1.076       .  S
C501       Br507   1.921       .  S
C508        C509   1.413       .  A
C508        C513   1.410       .  A
C509        C510   1.409       .  A
C509       Br525   1.918       .  S
C510        C511   1.409       .  A
C510        H514   1.083       .  S
C511        C512   1.410       .  A
C511        C515   1.500       .  S
C512        C513   1.405       .  A
C512       Br524   1.920       .  S
C513        H516   1.083       .  S
C515        C517   1.394       .  A
C515        C521   1.415       .  A
C517        C518   1.397       .  A
C517        H522   1.084       .  S
C518        C519   1.435       .  A
C518       Br526   1.932       .  S
C519        C520   1.408       .  A
C520        C521   1.414       .  A
C520        H523   1.075       .  S
C521       Br527   1.917       .  S
C528        C529   1.411       .  A
C528        C533   1.402       .  A
C529        C530   1.392       .  A
C529       Br545   1.922       .  S
C530        C531   1.398       .  A
C530        H534   1.084       .  S
C531        C532   1.405       .  A
C531        C535   1.467       .  S
C532        C533   1.399       .  A
C532       Br544   1.917       .  S
C533        H536   1.084       .  S
C535        C537   1.399       .  A
C535        C541   1.407       .  A
C537        C538   1.395       .  A
C537        H542   1.084       .  S
C538        C539   1.407       .  A
C538       Br546   1.913       .  S
C539        C540   1.399       .  A
C540        C541   1.397       .  A
C540        H543   1.083       .  S
C541       Br547   1.919       .  S
C548        C549   1.412       .  A
C548        C553   1.403       .  A
C549        C550   1.401       .  A
C549       Br565   1.917       .  S
C550        C551   1.402       .  A
C550        H554   1.083       .  S
C551        C552   1.403       .  A
C551        C555   1.469       .  S
C552        C553   1.391       .  A
C552       Br564   1.919       .  S
C553        H556   1.083       .  S
C555        C557   1.401       .  A
C555        C561   1.403       .  A
C557        C558   1.400       .  A
C557        H562   1.084       .  S
C558        C559   1.412       .  A
C558       Br566   1.919       .  S
C559        C560   1.405       .  A
C560        C561   1.393       .  A
C560        H563   1.080       .  S
C561       Br567   1.919       .  S
C568        C569   1.420       .  A
C568        C573   1.407       .  A
C569        C570   1.398       .  A
C569       Br585   1.922       .  S
C570        C571   1.397       .  A
C570        H574   1.084       .  S
C571        C572   1.402       .  A
C571        C575   1.468       .  S
C572        C573   1.394       .  A
C572       Br584   1.919       .  S
C573        H576   1.082       .  S
C575        C577   1.392       .  A
C575        C581   1.401       .  A
C577        C578   1.395       .  A
C577        H582   1.084       .  S
C578        C579   1.425       .  A
C578       Br586   1.919       .  S
C579        C580   1.414       .  A
C580        C581   1.396       .  A
C580        H583   1.075       .  S
C581       Br587   1.919       .  S
C588        C589   1.410       .  A
C588        C593   1.399       .  A
C589        C590   1.402       .  A
C589       Br605   1.919       .  S
C590        C591   1.405       .  A
C590        H594   1.083       .  S
C591        C592   1.414       .  A
C591        C595   1.489       .  S
C592        C593   1.398       .  A
C592       Br604   1.920       .  S
C593        H596   1.084       .  S
C595        C597   1.405       .  A
C595        C601   1.409       .  A
C597        C598   1.402       .  A
C597        H602   1.083       .  S
C598        C599   1.418       .  A
C598       Br606   1.922       .  S
C599        C600   1.406       .  A
C600        C601   1.399       .  A
C600        H603   1.077       .  S
C601       Br607   1.920       .  S
C608        C609   1.419       .  A
C608        C613   1.406       .  A
C609        C610   1.396       .  A
C609       Br625   1.924       .  S
C610        C611   1.399       .  A
C610        H614   1.084       .  S
C611        C612   1.407       .  A
C611        C615   1.477       .  S
C612        C613   1.398       .  A
C612       Br624   1.919       .  S
C613        H616   1.082       .  S
C615        C617   1.400       .  A
C615        C621   1.403       .  A
C617        C618   1.399       .  A
C617        H622   1.084       .  S
C618        C619   1.421       .  A
C618       Br626   1.924       .  S
C619        C620   1.414       .  A
C620        C621   1.394       .  A
C620        H623   1.076       .  S
C621       Br627   1.922       .  S
C628        C629   1.430       .  A
C628        C633   1.410       .  A
C629        C630   1.389       .  A
C629       Br645   1.932       .  S
C630        C631   1.392       .  A
C630        H634   1.084       .  S
C631        C632   1.413       .  A
C631        C635   1.490       .  S
C632        C633   1.414       .  A
C632       Br644   1.917       .  S
C633        H636   1.077       .  S
C635        C637   1.404       .  A
C635        C641   1.410       .  A
C637        C638   1.399       .  A
C637        H642   1.084       .  S
C638        C639   1.409       .  A
C638       Br646   1.908       .  S
C639        C640   1.409       .  A
C640        C641   1.407       .  A
C640        H643   1.083       .  S
C641       Br647   1.917       .  S
C648        C649   1.409       .  A
C648        C653   1.407       .  A
C649        C650   1.400       .  A
C649       Br665   1.916       .  S
C650        C651   1.408       .  A
C650        H654   1.081       .  S
C651        C652   1.414       .  A
C651        C655   1.501       .  S
C652        C653   1.405       .  A
C652       Br664   1.920       .  S
C653        H656   1.078       .  S
C655        C657   1.412       .  A
C655        C661   1.410       .  A
C657        C658   1.409       .  A
C657        H662   1.083       .  S
C658        C659   1.413       .  A
C658       Br666   1.917       .  S
C659        C660   1.413       .  A
C660        C661   1.396       .  A
C660        H663   1.083       .  S
C661       Br667   1.923       .  S
C668        C669   1.413       .  A
C668        C673   1.406       .  A
C669        C670   1.402       .  A
C669       Br685   1.922       .  S
C670        C671   1.405       .  A
C670        H674   1.082       .  S
C671        C672   1.410       .  A
C671        C675   1.486       .  S
C672        C673   1.397       .  A
C672       Br684   1.919       .  S
C673        H676   1.083       .  S
C675        C677   1.404       .  A
C675        C681   1.409       .  A
C677        C678   1.396       .  A
C677        H682   1.084       .  S
C678        C679   1.411       .  A
C678       Br686   1.917       .  S
C679        C680   1.409       .  A
C680        C681   1.403       .  A
C680        H683   1.083       .  S
C681       Br687   1.918       .  S
C688        C689   1.414       .  A
C688        C693   1.403       .  A
C689        C690   1.401       .  A
C689       Br705   1.919       .  S
C690        C691   1.401       .  A
C690        H694   1.083       .  S
C691        C692   1.407       .  A
C691        C695   1.477       .  S
C692        C693   1.398       .  A
C692       Br704   1.919       .  S
C693        H696   1.083       .  S
C695        C697   1.398       .  A
C695        C701   1.404       .  A
C697        C698   1.399       .  A
C697        H702   1.084       .  S
C698        C699   1.419       .  A
C698       Br706   1.915       .  S
C699        C700   1.411       .  A
C700        C701   1.398       .  A
C700        H703   1.083       .  S
C701       Br707   1.918       .  S
C708        C709   1.416       .  A
C708        C713   1.408       .  A
C709        C710   1.407       .  A
C709       Br725   1.914       .  S
C710        C711   1.403       .  A
C710        H714   1.083       .  S
C711        C712   1.406       .  A
C711        C715   1.487       .  S
C712        C713   1.402       .  A
C712       Br724   1.919       .  S
C713        H716   1.083       .  S
C715        C717   1.405       .  A
C715        C721   1.406       .  A
C717        C718   1.406       .  A
C717        H722   1.083       .  S
C718        C719   1.412       .  A
C718       Br726   1.916       .  S
C719        C720   1.407       .  A
C720        C721   1.400       .  A
C720        H723   1.084       .  S
C721       Br727   1.917       .  S
C728        C729   1.419       .  A
C728        C733   1.409       .  A
C729        C730   1.401       .  A
C729       Br745   1.921       .  S
C730        C731   1.400       .  A
C730        H734   1.084       .  S
C731        C732   1.406       .  A
C731        C735   1.482       .  S
C732        C733   1.401       .  A
C732       Br744   1.919       .  S
C733        H736   1.081       .  S
C735        C737   1.397       .  A
C735        C741   1.404       .  A
C737        C738   1.400       .  A
C737        H742   1.084       .  S
C738        C739   1.424       .  A
C738       Br746   1.924       .  S
C739        C740   1.416       .  A
C740        C741   1.402       .  A
C740        H743   1.075       .  S
C741       Br747   1.920       .  S
C748        C749   1.415       .  A
C748        C753   1.407       .  A
C749        C750   1.407       .  A
C749       Br765   1.915       .  S
C750        C751   1.403       .  A
C750        H754   1.083       .  S
C751        C752   1.406       .  A
C751        C755   1.483       .  S
C752        C753   1.398       .  A
C752       Br764   1.919       .  S
C753        H756   1.084       .  S
C755        C757   1.404       .  A
C755        C761   1.408       .  A
C757        C758   1.401       .  A
C757        H762   1.084       .  S
C758        C759   1.407       .  A
C758       Br766   1.916       .  S
C759        C760   1.405       .  A
C760        C761   1.403       .  A
C760        H763   1.083       .  S
C761       Br767   1.917       .  S
C768        C769   1.432       .  A
C768        C773   1.411       .  A
C769        C770   1.395       .  A
C769       Br785   1.931       .  S
C770        C771   1.393       .  A
C770        H774   1.084       .  S
C771        C772   1.411       .  A
C771        C775   1.493       .  S
C772        C773   1.414       .  A
C772       Br784   1.916       .  S
C773        H776   1.073       .  S
C775        C777   1.402       .  A
C775        C781   1.413       .  A
C777        C778   1.404       .  A
C777        H782   1.083       .  S
C778        C779   1.416       .  A
C778       Br786   1.921       .  S
C779        C780   1.403       .  A
C780        C781   1.407       .  A
C780        H783   1.083       .  S
C781       Br787   1.918       .  S
C788        C789   1.406       .  A
C788        C793   1.397       .  A
C789        C790   1.396       .  A
C789       Br805   1.918       .  S
C790        C791   1.401       .  A
C790        H794   1.083       .  S
C791        C792   1.408       .  A
C791        C795   1.467       .  S
C792        C793   1.395       .  A
C792       Br804   1.920       .  S
C793        H796   1.083       .  S
C795        C797   1.397       .  A
C795        C801   1.406       .  A
C797        C798   1.394       .  A
C797        H802   1.084       .  S
C798        C799   1.411       .  A
C798       Br806   1.914       .  S
C799        C800   1.402       .  A
C800        C801   1.397       .  A
C800        H803   1.084       .  S
C801       Br807   1.918       .  S
C808        C809   1.415       .  A
C808        C813   1.403       .  A
C809        C810   1.394       .  A
C809       Br825   1.921       .  S
C810        C811   1.397       .  A
C810        H814   1.084       .  S
C811        C812   1.406       .  A
C811        C815   1.469       .  S
C812        C813   1.399       .  A
C812       Br824   1.918       .  S
C813        H816   1.079       .  S
C815        C817   1.403       .  A
C815        C821   1.406       .  A
C817        C818   1.398       .  A
C817        H822   1.083       .  S
C818        C819   1.404       .  A
C818       Br826   1.916       .  S
C819        C820   1.402       .  A
C820        C821   1.395       .  A
C820        H823   1.083       .  S
C821       Br827   1.919       .  S
C828        C829   1.426       .  A
C828        C833   1.418       .  A
C829        C830   1.412       .  A
C829       Br845   1.917       .  S
C830        C831   1.404       .  A
C830        H834   1.083       .  S
C831        C832   1.399       .  A
C831        C835   1.487       .  S
C832        C833   1.393       .  A
C832       Br844   1.921       .  S
C833        H836   1.080       .  S
C835        C837   1.403       .  A
C835        C841   1.405       .  A
C837        C838   1.403       .  A
C837        H842   1.084       .  S
C838        C839   1.414       .  A
C838       Br846   1.914       .  S
C839        C840   1.410       .  A
C840        C841   1.403       .  A
C840        H843   1.083       .  S
C841       Br847   1.917       .  S
C848        C849   1.413       .  A
C848        C853   1.405       .  A
C849        C850   1.403       .  A
C849       Br865   1.919       .  S
C850        C851   1.403       .  A
C850        H854   1.083       .  S
C851        C852   1.410       .  A
C851        C855   1.487       .  S
C852        C853   1.401       .  A
C852       Br864   1.919       .  S
C853        H856   1.083       .  S
C855        C857   1.398       .  A
C855        C861   1.405       .  A
C857        C858   1.401       .  A
C857        H862   1.084       .  S
C858        C859   1.422       .  A
C858       Br866   1.916       .  S
C859        C860   1.418       .  A
C860        C861   1.403       .  A
C860        H863   1.075       .  S
C861       Br867   1.920       .  S
C868        C869   1.414       .  A
C868        C873   1.407       .  A
C869        C870   1.404       .  A
C869       Br885   1.918       .  S
C870        C871   1.403       .  A
C870        H874   1.084       .  S
C871        C872   1.409       .  A
C871        C875   1.488       .  S
C872        C873   1.405       .  A
C872       Br884   1.917       .  S
C873        H876   1.083       .  S
C875        C877   1.399       .  A
C875        C881   1.410       .  A
C877        C878   1.400       .  A
C877        H882   1.084       .  S
C878        C879   1.416       .  A
C878       Br886   1.914       .  S
C879        C880   1.407       .  A
C880        C881   1.407       .  A
C880        H883   1.083       .  S
C881       Br887   1.916       .  S
C888        C889   1.431       .  A
C888        C893   1.412       .  A
C889        C890   1.395       .  A
C889       Br905   1.930       .  S
C890        C891   1.395       .  A
C890        H894   1.084       .  S
C891        C892   1.415       .  A
C891        C895   1.501       .  S
C892        C893   1.417       .  A
C892       Br904   1.917       .  S
C893        H896   1.077       .  S
C895        C897   1.405       .  A
C895        C901   1.412       .  A
C897        C898   1.403       .  A
C897        H902   1.084       .  S
C898        C899   1.413       .  A
C898       Br906   1.911       .  S
C899        C900   1.411       .  A
C900        C901   1.410       .  A
C900        H903   1.083       .  S
C901       Br907   1.917       .  S
C908        C909   1.423       .  A
C908        C913   1.418       .  A
C909        C910   1.416       .  A
C909       Br925   1.915       .  S
C910        C911   1.409       .  A
C910        H914   1.083       .  S
C911        C912   1.403       .  A
C911        C915   1.500       .  S
C912        C913   1.396       .  A
C912       Br924   1.922       .  S
C913        H916   1.082       .  S
C915        C917   1.406       .  A
C915        C921   1.414       .  A
C917        C918   1.404       .  A
C917        H922   1.083       .  S
C918        C919   1.413       .  A
C918       Br926   1.920       .  S
C919        C920   1.404       .  A
C920        C921   1.410       .  A
C920        H923   1.083       .  S
C921       Br927   1.917       .  S
