geometry optimzed in LAMMPS
_audit_creation_date              2020-12-01 
_audit_creation_method            'lammps2cif' 
_symmetry_space_group_name_H-M    'P1' 
_symmetry_Int_Tables_number       1 
_symmetry_cell_setting            triclinic 
loop_ 
_symmetry_equiv_pos_as_xyz 
  x,y,z 
_cell_length_a                    41.34079413 
_cell_length_b                    39.47800366060637 
_cell_length_c                    40.233412901432395 
_cell_angle_alpha                 91.41518170733994 
_cell_angle_beta                  92.942885194579 
_cell_angle_gamma                 90.16321181540023 
loop_ 
_atom_site_label 
_atom_site_type_symbol 
_atom_site_fract_x 
_atom_site_fract_y 
_atom_site_fract_z 
_atom_site_charge 
C1          C  0.35291130  0.35014573  0.39629152     0.85100
C2          C  0.33314185  0.37256690  0.37160167    -0.55100
C3          C  0.35037662  0.39364558  0.35201648     0.08100
C4          C  0.38857770  0.38976027  0.35992670     0.19000
C5          C  0.37656026  0.33085230  0.37355222    -0.55800
C6          C  0.39592593  0.35047486  0.35424243     0.08200
C7          C  0.37497834  0.37558920  0.41655242    -0.55400
C8          C  0.39420230  0.39657566  0.39897300     0.08700
H9          H  0.30685904  0.37173715  0.36987426     0.13300
H10         H  0.40336007  0.40642425  0.34481789    -0.01000
H11         H  0.37782121  0.30338491  0.37294395     0.13600
H12         H  0.37532159  0.37661269  0.44356665     0.13300
C13         C  0.10112709  0.11135892  0.10302123     0.85100
C14         C  0.12338164  0.13540065  0.08449706    -0.55100
C15         C  0.14386651  0.15625764  0.10382564     0.08100
C16         C  0.13872488  0.15073332  0.14283092     0.19000
C17         C  0.12455925  0.09202228  0.12703367    -0.55800
C18         C  0.14491586  0.11126801  0.14832868     0.08200
C19         C  0.08242208  0.13489292  0.12641259    -0.55400
C20         C  0.10049542  0.15567672  0.14826118     0.08700
H21         H  0.12330469  0.13538364  0.05750145     0.13300
H22         H  0.15442429  0.16717735  0.15963663    -0.01000
H23         H  0.12478037  0.06451616  0.12707371     0.13600
H24         H  0.05615631  0.13408660  0.12638188     0.13300
N25         N  0.05836262  0.48267154  0.44974645    -0.07500
N26         N  0.08358526  0.47567775  0.43203698    -0.59600
N27         N  0.52056448  0.05239509  0.44297144    -0.07100
N28         N  0.51771985  0.08041520  0.42583438    -0.61700
N29         N  0.04242342  0.05737381  0.46064532    -0.06700
N30         N  0.05769549  0.08596219  0.45561132    -0.59600
N31         N  0.03151845  0.47809209  0.43077880    -0.06400
N32         N  0.03838671  0.46770113  0.40066637    -0.62100
C33         C  0.07085067  0.46662058  0.40142410     0.94700
C34         C  0.03905817  0.10049944  0.43159037     0.94500
N35         N  0.42789224  0.03196441  0.46900187    -0.07700
N36         N  0.39780398  0.05083765  0.96400534    -0.60200
N37         N  0.45397714  0.45916653  0.43368594    -0.05800
N38         N  0.44231134  0.44052609  0.40732072    -0.61400
N39         N  0.43655386  0.45355660  0.45952888    -0.07700
N40         N  0.41340478  0.43095436  0.45125229    -0.60400
N41         N  0.44680501  0.03730608  0.44449413    -0.05400
N42         N  0.43491646  0.06071397  0.42463071    -0.61500
Mn43       Mn  0.48863824  0.00612176  0.43772962     1.18400
C44         C  0.40691959  0.06896077  0.43835189     0.96800
C45         C  0.41691935  0.42239220  0.41858575     0.97500
N46         N  0.06045806  0.05607046  0.03828557    -0.07700
N47         N  0.08329274  0.07902707  0.04721501    -0.64000
N48         N  0.05729624  0.47120316  0.05258799    -0.06500
N49         N  0.07076256  0.44914828  0.07276133    -0.64700
N50         N  0.07497459  0.47638845  0.52810411    -0.07200
N51         N  0.10092990  0.45708285  0.52938740    -0.64300
N52         N  0.04249227  0.05022375  0.06359551    -0.06100
N53         N  0.05319990  0.06877865  0.09013119    -0.65000
Mn54       Mn  0.05856508  0.01798113  0.49408430     1.10700
C55         C  0.07853574  0.08740794  0.07976921     0.98000
C56         C  0.09893214  0.44227003  0.05891198     0.98100
N57         N  0.45691238  0.45043830  0.03859085    -0.07200
N58         N  0.44032779  0.42301111  0.04506680    -0.62600
N59         N  0.46740944  0.03324835  0.06683377    -0.06500
N60         N  0.46083020  0.04577902  0.09621392    -0.59300
N61         N  0.44053733  0.02849638  0.04794819    -0.07800
N62         N  0.41541257  0.03698458  0.06534714    -0.62200
N63         N  0.48252717  0.45422501  0.05933545    -0.06800
N64         N  0.98441551  0.42769094  0.07986239    -0.59300
Mn65       Mn  0.44211812  0.48925777  0.00411885     1.20200
Mn66       Mn  0.01462603  0.50017741  0.06124577     1.10100
Cl67       Cl  0.50069300  0.00299352  0.50008935    -0.87300
C68         C  0.45786140  0.40939931  0.07043795     0.95000
C69         C  0.42847254  0.04767241  0.09541438     0.94800
N70         N  0.29747186  0.19202747  0.49066180    -0.07500
N71         N  0.30311269  0.16563747  0.47127557    -0.59600
N72         N  0.30920704  0.23566461  0.05483374    -0.07100
N73         N  0.33496084  0.23257874  0.07506263    -0.61700
N74         N  0.28815575  0.21128307  0.06051707    -0.06700
N75         N  0.29956585  0.19169078  0.08437431    -0.59600
N76         N  0.31743168  0.21704101  0.48416885    -0.06400
N77         N  0.33701818  0.20766574  0.46071216    -0.62100
C78         C  0.32745671  0.17563902  0.45258859     0.94700
C79         C  0.32860493  0.20530331  0.09316730     0.94500
N80         N  0.28045769  0.33286696  0.02199752    -0.07700
N81         N  0.27917375  0.36285848  0.03667685    -0.60200
N82         N  0.31736866  0.29517570  0.45914415    -0.05800
N83         N  0.34285442  0.30461116  0.44214484    -0.61400
N84         N  0.29145721  0.31170958  0.44845247    -0.07700
N85         N  0.29906037  0.33248591  0.42419547    -0.60400
N86         N  0.30473927  0.31501969  0.03416824    -0.05400
N87         N  0.32071770  0.33289508  0.05830507    -0.61500
Mn88       Mn  0.31136328  0.26464540  0.00807441     1.18400
C89         C  0.30437475  0.36297322  0.05907532     0.96800
C90         C  0.33135229  0.32768240  0.41951162     0.97500
N91         N  0.20946141  0.19389921  0.05771398    -0.07700
N92         N  0.20004394  0.17264746  0.08101301    -0.64000
N93         N  0.19950555  0.19148667  0.47631317    -0.06500
N94         N  0.18425785  0.17481749  0.45103623    -0.64700
N95         N  0.22431513  0.17387138  0.48765092    -0.07200
N96         N  0.22659120  0.14493903  0.47117400    -0.64300
N97         N  0.18472594  0.21254204  0.04754939    -0.06100
N98         N  0.15851850  0.20416826  0.06388394    -0.65000
Mn99       Mn  0.25252788  0.19224407  0.02338324     1.10700
C100        C  0.16810431  0.17984182  0.08603610     0.98000
C101        C  0.20134627  0.14545545  0.44874637     0.98100
N102        N  0.21415145  0.29215501  0.44683943    -0.07200
N103        N  0.20265218  0.31039663  0.42210259    -0.62600
N104        N  0.18769002  0.29173407  0.02508203    -0.06500
N105        N  0.16848937  0.30194511  0.04855299    -0.59300
N106        N  0.20819237  0.31618752  0.01856739    -0.07800
N107        N  0.20340623  0.34292698  0.03769086    -0.62200
N108        N  0.19311138  0.26836636  0.45394350    -0.06800
N109        N  0.16711531  0.27046782  0.43386104    -0.59300
Mn110      Mn  0.24935093  0.31335418  0.48287272     1.20200
Mn111      Mn  0.19232265  0.24148937  0.50157633     1.10100
Cl112      Cl  0.24995655  0.25306319  0.00364162    -0.87300
C113        C  0.17342567  0.29674417  0.41443734     0.95000
C114        C  0.17903429  0.33379307  0.05653105     0.94800
N115        N  0.46512509  0.18957036  0.28495610    -0.07500
N116        N  0.45187408  0.16319233  0.29891817    -0.59600
N117        N  0.44493133  0.21829322  0.21318212    -0.07100
N118        N  0.42114977  0.21298683  0.19082194    -0.61700
N119        N  0.46699309  0.19434187  0.21051029    -0.06700
N120        N  0.45834135  0.17217655  0.18650680    -0.59600
N121        N  0.44621051  0.21615814  0.28864924    -0.06400
N122        N  0.42134750  0.20874320  0.30595197    -0.62100
C123        C  0.42456155  0.17571580  0.31215997     0.94700
C124        C  0.42982794  0.18450990  0.17454549     0.94500
N125        N  0.96121571  0.32443489  0.22258944    -0.07700
N126        N  0.95846967  0.34490331  0.19743053    -0.60200
N127        N  0.43872674  0.29628496  0.29559476    -0.05800
N128        N  0.41367482  0.30249994  0.31443658    -0.61400
N129        N  0.45978862  0.32131634  0.29870122    -0.07700
N130        N  0.44868239  0.34536824  0.31948068    -0.60400
N131        N  0.44272310  0.29761679  0.21816817    -0.05400
N132        N  0.42594928  0.30085130  0.18956015    -0.61500
Mn133      Mn  0.44295342  0.25685195  0.25405217     1.18400
C134        C  0.43896526  0.32897275  0.17696691     0.96800
C135        C  0.41963740  0.33327667  0.32973580     0.97500
N136        N  0.04433344  0.19109610  0.20856045    -0.07700
N137        N  0.05246048  0.16719456  0.18639302    -0.64000
N138        N  0.06436468  0.21477415  0.28976413    -0.06500
N139        N  0.07827408  0.21423902  0.32017035    -0.64700
N140        N  0.54234569  0.18730420  0.28966970    -0.07200
N141        N  0.54244392  0.16830654  0.31600919    -0.64300
N142        N  0.06723871  0.21431394  0.21142609    -0.06100
N143        N  0.09133600  0.20621501  0.19145814    -0.65000
Mn144      Mn  0.50519335  0.18900311  0.24891746     1.10700
C145        C  0.08202333  0.17650259  0.17531930     0.98000
C146        C  0.06412337  0.18715562  0.33361983     0.98100
N147        N  0.03971609  0.31740636  0.29718654    -0.07200
N148        N  0.04884073  0.33972331  0.32080947    -0.62600
N149        N  0.05824309  0.29570505  0.21827956    -0.06500
N150        N  0.08208436  0.30407933  0.19981965    -0.59300
N151        N  0.03838404  0.32156425  0.22250297    -0.07800
N152        N  0.04972203  0.34809398  0.20723012    -0.62200
N153        N  0.06228487  0.29413858  0.29323021    -0.06800
N154        N  0.08698069  0.30025141  0.31422136    -0.59300
Mn155      Mn  0.99987310  0.32272461  0.26093906     1.20200
Mn156      Mn  0.06363281  0.25490771  0.25295553     1.10100
Cl157      Cl  0.00267654  0.25737984  0.25390128    -0.87300
C158        C  0.07839311  0.32857835  0.33075234     0.95000
C159        C  0.07709540  0.33683092  0.19322503     0.94800
N160        N  0.29028215  0.43886108  0.29954889    -0.07500
N161        N  0.29959324  0.41158813  0.31650545    -0.59600
N162        N  0.26965473  0.01540230  0.33232846    -0.07100
N163        N  0.26596852  0.04168045  0.35249568    -0.61700
N164        N  0.24443129  0.99518000  0.33228706    -0.06700
N165        N  0.22280611  0.00778284  0.35247150    -0.59600
N166        N  0.31462293  0.46048963  0.29948285    -0.06400
N167        N  0.34059326  0.44789399  0.31633433    -0.62100
C168        C  0.33141811  0.41668441  0.32661306     0.94700
C169        C  0.23689026  0.03671698  0.36518464     0.94500
N170        N  0.27504156  0.08512433  0.25711460    -0.07700
N171        N  0.28472992  0.11711875  0.25907732    -0.60200
N172        N  0.32943935  0.52077655  0.24522597    -0.05800
N173        N  0.36013954  0.51355285  0.24023920    -0.61400
N174        N  0.31620573  0.53606784  0.21903561    -0.07700
N175        N  0.33715735  0.53949744  0.19616698    -0.60400
N176        N  0.28496712  0.06992359  0.28471335    -0.05400
N177        N  0.29801079  0.09186186  0.30632474    -0.61500
Mn178      Mn  0.29954035  0.01662987  0.28962948     1.18400
C179        C  0.29926583  0.12091284  0.29002649     0.96800
C180        C  0.36413927  0.52571334  0.20949813     0.97500
N181        N  0.18703628  0.97822226  0.28294320    -0.07700
N182        N  0.16655182  0.97736991  0.30663064    -0.64000
N183        N  0.21719977  0.44242971  0.21589698    -0.06500
N184        N  0.20350835  0.42029992  0.19480300    -0.64700
N185        N  0.22727841  0.42764151  0.24361870    -0.07200
N186        N  0.21794212  0.39554542  0.24204994    -0.64300
N187        N  0.17366576  0.99223215  0.25611775    -0.06100
N188        N  0.14332127  0.00088269  0.26130964    -0.65000
Mn189      Mn  0.23856605  0.45844240  0.28941324     1.10700
C190        C  0.13972278  0.99143364  0.29307921     0.98000
C191        C  0.20293315  0.39132705  0.21134046     0.98100
N192        N  0.26001058  0.51829904  0.16883078    -0.07200
N193        N  0.28241813  0.50623490  0.14922303    -0.62600
N194        N  0.18816995  0.05060156  0.20139743    -0.06500
N195        N  0.16138687  0.06122510  0.18503940    -0.59300
N196        N  0.21120244  0.07364123  0.20048661    -0.07800
N197        N  0.19978462  0.10030424  0.18326270    -0.62200
N198        N  0.23553047  0.49702383  0.16875846    -0.06800
N199        N  0.24061053  0.47056293  0.14916049    -0.59300
Mn200      Mn  0.26380121  0.05489389  0.21104355     1.20200
Mn201      Mn  0.20439357  0.49593493  0.21081242     1.10100
Cl202      Cl  0.25037932  0.00665945  0.25022875    -0.87300
C203        C  0.26963798  0.47659466  0.13669279     0.95000
C204        C  0.16801890  0.09277935  0.17408593     0.94800
C205        C  0.35723618  0.11837609  0.28473557    -0.27700
C206        C  0.33067957  0.13760450  0.29487010    -0.15700
C207        C  0.33575893  0.16476105  0.31757770     0.34900
C208        C  0.36767386  0.17425665  0.32720058    -0.27100
C209        C  0.39439904  0.15636714  0.31518059    -0.16400
C210        C  0.38887625  0.12637635  0.29619639     0.36000
N211        N  0.41526885  0.10448634  0.28834184    -0.90600
H212        H  0.35296211  0.09569404  0.26932492     0.17100
H213        H  0.37180707  0.19704531  0.34241570     0.17100
N214        N  0.30867275  0.18292152  0.33006097    -0.89600
H215        H  0.40644315  0.08241681  0.27588652     0.34500
H216        H  0.42590643  0.09644462  0.31079492     0.39600
H217        H  0.31675006  0.20275712  0.34620899     0.39200
H218        H  0.29587903  0.16629761  0.34433160     0.34100
C219        C  0.13056631  0.34655340  0.17044706    -0.27700
C220        C  0.10639861  0.35768320  0.19158886    -0.15700
C221        C  0.11515521  0.37895229  0.21917380     0.34900
C222        C  0.14774904  0.38542316  0.22739035    -0.27100
C223        C  0.17202239  0.37345491  0.20707586    -0.16400
C224        C  0.16332940  0.35521419  0.17746425     0.36000
N225        N  0.18776602  0.34587453  0.15483666    -0.90600
H226        H  0.12398258  0.32991041  0.14933855     0.17100
H227        H  0.15396544  0.40190169  0.24876516     0.17100
N228        N  0.09104365  0.39334519  0.23954870    -0.89600
H229        H  0.17739466  0.33148704  0.13462555     0.34500
H230        H  0.20409598  0.33007800  0.16723807     0.39600
H231        H  0.09536287  0.38536743  0.26385367     0.39200
H232        H  0.09365120  0.41975409  0.23954959     0.34100
C233        C  0.28640930  0.41648052  0.13355039    -0.27700
C234        C  0.28795046  0.44906851  0.12032224    -0.15700
C235        C  0.30255438  0.45308648  0.08976206     0.34900
C236        C  0.31274975  0.42425036  0.07189960    -0.27100
C237        C  0.30835151  0.39130883  0.08378484    -0.16400
C238        C  0.29603844  0.38759224  0.11545445     0.36000
N239        N  0.28976135  0.35429010  0.12731785    -0.90600
H240        H  0.27534949  0.41327475  0.15712866     0.17100
H241        H  0.32121673  0.42735459  0.04709999     0.17100
N242        N  0.30456884  0.48561330  0.07495220    -0.89600
H243        H  0.27934391  0.35578936  0.15050339     0.34500
H244        H  0.31199425  0.34219597  0.13103888     0.39600
H245        H  0.31763055  0.50191117  0.09154200     0.39200
H246        H  0.28110714  0.49522536  0.07155493     0.34100
C247        C  0.18986866  0.08670422  0.42870533    -0.27700
C248        C  0.19893113  0.11996680  0.42144686    -0.15700
C249        C  0.21616020  0.12574094  0.39290709     0.34900
C250        C  0.22671567  0.09798533  0.37395138    -0.27100
C251        C  0.22010106  0.06447912  0.38275550    -0.16400
C252        C  0.19999852  0.05878073  0.40930304     0.36000
N253        N  0.19171951  0.02480140  0.41774613    -0.90600
H254        H  0.17712679  0.08234180  0.45109326     0.17100
H255        H  0.24146652  0.10254685  0.35299762     0.17100
N256        N  0.22541682  0.15966669  0.38514045    -0.89600
H257        H  0.17657702  0.02506343  0.43784548     0.34500
H258        H  0.21303092  0.01269231  0.42573536     0.39600
H259        H  0.20415021  0.17311596  0.37948085     0.39200
H260        H  0.23873067  0.15960641  0.36376610     0.34100
C261        C  0.09243810  0.33285205  0.38863250    -0.27700
C262        C  0.09935742  0.34338048  0.35692643    -0.15700
C263        C  0.13181355  0.34816321  0.34893475     0.34900
C264        C  0.15624459  0.33367379  0.36876746    -0.27100
C265        C  0.14830300  0.31579505  0.39678017    -0.16400
C266        C  0.11683430  0.31813005  0.40858128     0.36000
N267        N  0.10941290  0.30475474  0.44010194    -0.90600
H268        H  0.06750335  0.33056417  0.39546417     0.17100
H269        H  0.18097123  0.33429497  0.36102765     0.17100
N270        N  0.14002254  0.36384569  0.31873595    -0.89600
H271        H  0.09113494  0.28654158  0.43605363     0.34500
H272        H  0.10036804  0.32449345  0.45469809     0.39600
H273        H  0.13020446  0.38821523  0.31871757     0.39200
H274        H  0.12956455  0.35004086  0.29843779     0.34100
C275        C  0.38492601  0.18608181  0.09689004    -0.27700
C276        C  0.35427366  0.18636739  0.11029481    -0.15700
C277        C  0.34968258  0.17088823  0.14068193     0.34900
C278        C  0.37694636  0.16137319  0.16014504    -0.27100
C279        C  0.40806017  0.16834486  0.14958407    -0.16400
C280        C  0.41206621  0.17683998  0.11649138     0.36000
N281        N  0.44381288  0.18049235  0.10434911    -0.90600
H282        H  0.38819207  0.19579126  0.07230719     0.17100
H283        H  0.37384899  0.15422099  0.18563048     0.17100
N284        N  0.31801807  0.16809849  0.15325630    -0.89600
H285        H  0.44661472  0.20552898  0.09707819     0.34500
H286        H  0.44517678  0.16477804  0.08315191     0.39600
H287        H  0.31789184  0.18163647  0.17592059     0.39200
H288        H  0.31382915  0.14257571  0.15798914     0.34100
C289        C  0.39824817  0.12833885  0.42287364    -0.27700
C290        C  0.38550753  0.09578190  0.42643925    -0.15700
C291        C  0.35187917  0.09068473  0.42501186     0.34900
C292        C  0.33174945  0.11885587  0.42740910    -0.27100
C293        C  0.34521863  0.15140163  0.43205836    -0.16400
C294        C  0.37800427  0.15658195  0.42543611     0.36000
N295        N  0.39123527  0.19003831  0.42393226    -0.90600
H296        H  0.42417230  0.13206610  0.42190205     0.17100
H297        H  0.30601998  0.11498505  0.42987106     0.17100
N298        N  0.33864058  0.05694699  0.42373190    -0.89600
H299        H  0.40133605  0.19229281  0.40079769     0.34500
H300        H  0.40998353  0.19265140  0.44230270     0.39600
H301        H  0.34481864  0.04561487  0.40112207     0.39200
H302        H  0.31337728  0.05769194  0.42319081     0.34100
C303        C  0.15270254  0.41994285  0.07623072    -0.27700
C304        C  0.11953300  0.41463549  0.06982033    -0.15700
C305        C  0.10617545  0.38202677  0.07159475     0.34900
C306        C  0.12679215  0.35428466  0.07411193    -0.27100
C307        C  0.16031792  0.35922079  0.07428917    -0.16400
C308        C  0.17329383  0.39222027  0.08004627     0.36000
N309        N  0.20714637  0.39823893  0.08805626    -0.90600
H310        H  0.16263614  0.44541100  0.07719699     0.17100
H311        H  0.11649383  0.32904119  0.07128371     0.17100
N312        N  0.07413794  0.37145660  0.56882415    -0.89600
H313        H  0.21714617  0.40925248  0.06769197     0.34500
H314        H  0.21934223  0.37541164  0.09270958     0.39600
H315        H  0.06829970  0.35944082  0.59060524     0.39200
H316        H  0.07010274  0.35425168  0.54886736     0.34100
C317        C  0.10122703  0.00433810  0.37078675    -0.27700
C318        C  0.08717516  0.47539439  0.37129677    -0.15700
C319        C  0.07855531  0.46006423  0.34013685     0.34900
C320        C  0.09266383  0.47170340  0.31156285    -0.27100
C321        C  0.11131672  0.99511799  0.31264935    -0.16400
C322        C  0.11505508  0.01520825  0.34208338     0.36000
N323        N  0.13513156  0.04509203  0.34432457    -0.90600
H324        H  0.10518195  0.01940644  0.39353969     0.17100
H325        H  0.08874999  0.45750457  0.28831830     0.17100
N326        N  0.05677252  0.43174202  0.33768301    -0.89600
H327        H  0.12064672  0.06535027  0.35136365     0.34500
H328        H  0.14327776  0.05099418  0.32090848     0.39600
H329        H  0.06887363  0.41126849  0.32705654     0.39200
H330        H  0.03727371  0.43795179  0.32142158     0.34100
C331        C  0.41759753  0.06342328  0.15354608    -0.27700
C332        C  0.41294577  0.04082561  0.12637288    -0.15700
C333        C  0.39898022  0.50574443  0.13150694     0.34900
C334        C  0.38699276  0.49884428  0.16240842    -0.27100
C335        C  0.39178573  0.52183358  0.18920498    -0.16400
C336        C  0.40636247  0.05522936  0.18461931     0.36000
N337        N  0.40996008  0.07897313  0.21197333    -0.90600
H338        H  0.42965081  0.08750487  0.15056904     0.17100
H339        H  0.37100928  0.47722583  0.16447660     0.17100
N340        N  0.39411444  0.48155974  0.10461865    -0.89600
H341        H  0.39879451  0.10157271  0.20501426     0.34500
H342        H  0.43471403  0.08385716  0.21647117     0.39600
H343        H  0.36928464  0.47696550  0.10084805     0.39200
H344        H  0.40511776  0.45907185  0.11204829     0.34100
C345        C  0.46125262  0.33266209  0.12282150    -0.27700
C346        C  0.43492068  0.33902545  0.14247523    -0.15700
C347        C  0.41172464  0.36333645  0.13292359     0.34900
C348        C  0.41739735  0.38356223  0.10552221    -0.27100
C349        C  0.44681061  0.38096376  0.08966769    -0.16400
C350        C  0.46780360  0.35409173  0.09697413     0.36000
N351        N  0.49695906  0.34991148  0.07977320    -0.90600
H352        H  0.47904866  0.31378050  0.13021738     0.17100
H353        H  0.40047800  0.40335780  0.09873831     0.17100
N354        N  0.88239740  0.37756104  0.15531014    -0.89600
H355        H  0.49631266  0.32588636  0.06823526     0.34500
H356        H  0.51598885  0.35010980  0.09785676     0.39600
H357        H  0.86557224  0.35762192  0.15363351     0.39200
H358        H  0.87047188  0.39885409  0.14597567     0.34100
C359        C  0.08069993  0.13564253  0.40662484    -0.27700
C360        C  0.04831391  0.13136216  0.41489327    -0.15700
C361        C  0.53234105  0.15612869  0.41359327     0.34900
C362        C  0.54007159  0.17815150  0.38852509    -0.27100
C363        C  0.06401104  0.17971315  0.36893319    -0.16400
C364        C  0.08876398  0.15975595  0.38328172     0.36000
N365        N  0.12093755  0.16163980  0.37153115    -0.90600
H366        H  0.09900675  0.11811312  0.41579751     0.14300
H367        H  0.52205194  0.19600607  0.37933800     0.17100
N368        N  0.50185612  0.15856826  0.42911146    -0.89600
H369        H  0.13615185  0.14440586  0.38399933     0.34500
H370        H  0.13000424  0.18578285  0.37787177     0.39600
H371        H  0.50688137  0.16372223  0.45446998     0.39200
H372        H  0.48857602  0.17915227  0.41995423     0.34100
C373        C  0.35257074  0.34982707  0.89773004     0.85100
C374        C  0.33267792  0.37308261  0.87392122    -0.55100
C375        C  0.34962701  0.39420246  0.85416745     0.08100
C376        C  0.38795951  0.38949544  0.86100447     0.19000
C377        C  0.37539671  0.33049328  0.87395171    -0.55800
C378        C  0.39467849  0.35016635  0.85447149     0.08200
C379        C  0.37568652  0.37457482  0.91784563    -0.55400
C380        C  0.39477937  0.39561586  0.90002557     0.08700
H381        H  0.30638934  0.37275410  0.87287688     0.13300
H382        H  0.40258810  0.40617233  0.84575945    -0.01000
H383        H  0.37626120  0.30301189  0.87288218     0.13600
H384        H  0.37674552  0.37518428  0.94487771     0.13300
C385        C  0.10506270  0.10997886  0.60401333     0.85100
C386        C  0.12759753  0.13412276  0.58566216    -0.55100
C387        C  0.14794847  0.15516318  0.60518579     0.08100
C388        C  0.14230460  0.14976849  0.64407539     0.19000
C389        C  0.12840526  0.09094474  0.62834927    -0.55800
C390        C  0.14863211  0.11037817  0.64962767     0.08200
C391        C  0.08616025  0.13361989  0.62716296    -0.55400
C392        C  0.10395079  0.15458795  0.64911223     0.08700
H393        H  0.12777763  0.13403261  0.55868608     0.13300
H394        H  0.15780373  0.16629172  0.66100674    -0.01000
H395        H  0.12876329  0.06344534  0.62851750     0.13600
H396        H  0.05988941  0.13270003  0.62691584     0.13300
N397        N  0.05869113  0.48370772  0.94833980    -0.07500
N398        N  0.08351190  0.47795650  0.92963710    -0.59600
N399        N  0.51812291  0.05471478  0.94231697    -0.07100
N400        N  0.51454885  0.08285137  0.92554249    -0.61700
N401        N  0.04024102  0.05976623  0.96063735    -0.06700
N402        N  0.05458990  0.08921756  0.95753317    -0.59600
N403        N  0.03149777  0.47783043  0.93026473    -0.06400
N404        N  0.03765133  0.46731192  0.90006191    -0.62100
C405        C  0.06999975  0.46770578  0.89966348     0.94700
C406        C  0.03546787  0.10468578  0.93456634     0.94500
N407        N  0.42476767  0.03323819  0.96800978    -0.07700
N408        N  0.40203985  0.05132100  0.46615967    -0.60200
N409        N  0.45529788  0.45857529  0.93329472    -0.05800
N410        N  0.44325284  0.43958050  0.90729501    -0.61400
N411        N  0.43847805  0.45291415  0.95955362    -0.07700
N412        N  0.41539719  0.43001540  0.95193566    -0.60400
N413        N  0.44374317  0.03889647  0.94358690    -0.05400
N414        N  0.43070304  0.06085396  0.92273992    -0.61500
Mn415      Mn  0.48649593  0.00829379  0.93725492     1.18400
C416        C  0.40194412  0.06780629  0.93562076     0.96800
C417        C  0.41824096  0.42124715  0.91921706     0.97500
N418        N  0.06360863  0.05416294  0.53938967    -0.07700
N419        N  0.08643845  0.07732093  0.54807129    -0.64000
N420        N  0.05684071  0.47022009  0.55305936    -0.06500
N421        N  0.06948840  0.44634052  0.57179893    -0.64700
N422        N  0.07569901  0.47738388  0.02778977    -0.07200
N423        N  0.10261497  0.45955808  0.03064170    -0.64300
N424        N  0.04627237  0.04791213  0.56508412    -0.06100
N425        N  0.05737902  0.06644766  0.59155492    -0.65000
Mn426      Mn  0.05651610  0.02013542  0.99320232     1.10700
C427        C  0.08237877  0.08548025  0.58087525     0.98000
C428        C  0.09691820  0.43857011  0.55674648     0.98100
N429        N  0.45534942  0.44971336  0.53843321    -0.07200
N430        N  0.43964563  0.42138507  0.54375449    -0.62600
N431        N  0.47010000  0.03100648  0.56714143    -0.06500
N432        N  0.46357851  0.04359676  0.59650127    -0.59300
N433        N  0.44321381  0.02626946  0.54828538    -0.07800
N434        N  0.41813268  0.03490391  0.56564833    -0.62200
N435        N  0.48130215  0.45305522  0.55880766    -0.06800
N436        N  0.98546427  0.42745857  0.57800770    -0.59300
Mn437      Mn  0.43994111  0.48928360  0.50464804     1.20200
Mn438      Mn  0.01473154  0.50053436  0.56204627     1.10100
Cl439      Cl  0.49846482  0.00534225  0.99970422    -0.87300
C440        C  0.45800237  0.40676950  0.56798349     0.95000
C441        C  0.43122886  0.04558040  0.59567276     0.94800
N442        N  0.29175749  0.19028532  0.98735123    -0.07500
N443        N  0.29654326  0.16438804  0.96696333    -0.59600
N444        N  0.31304912  0.24012521  0.55618841    -0.07100
N445        N  0.33861095  0.23860052  0.57687192    -0.61700
N446        N  0.29226301  0.21585982  0.56283800    -0.06700
N447        N  0.30361077  0.19789223  0.58782249    -0.59600
N448        N  0.31222326  0.21510196  0.98164530    -0.06400
N449        N  0.33124562  0.20600583  0.95762130    -0.62100
C450        C  0.32099561  0.17440957  0.94844667     0.94700
C451        C  0.33239479  0.21222348  0.59620258     0.94500
N452        N  0.28251928  0.33410067  0.52128106    -0.07700
N453        N  0.27966352  0.36316265  0.53733632    -0.60200
N454        N  0.31523271  0.29432976  0.95958160    -0.05800
N455        N  0.34113322  0.30350184  0.94299174    -0.61400
N456        N  0.28983331  0.31183756  0.94917566    -0.07700
N457        N  0.29822747  0.33301741  0.92554440    -0.60400
N458        N  0.30709156  0.31677712  0.53348131    -0.05400
N459        N  0.32176332  0.33384142  0.55887968    -0.61500
Mn460      Mn  0.31478282  0.26694790  0.50856295     1.18400
C461        C  0.30425590  0.36298462  0.56047627     0.96800
C462        C  0.33046430  0.32751994  0.92089709     0.97500
N463        N  0.21415005  0.19469118  0.56067506    -0.07700
N464        N  0.20462010  0.17282512  0.58345536    -0.64000
N465        N  0.19489328  0.19233906  0.97241814    -0.06500
N466        N  0.18060745  0.17698855  0.94571045    -0.64700
N467        N  0.21891075  0.17382154  0.98406610    -0.07200
N468        N  0.22156587  0.14564055  0.96643825    -0.64300
N469        N  0.18917561  0.21290142  0.55033855    -0.06100
N470        N  0.16280178  0.20367499  0.56596877    -0.65000
Mn471      Mn  0.25763878  0.19397451  0.52638298     1.10700
C472        C  0.17235355  0.17919966  0.58790135     0.98000
C473        C  0.19746635  0.14744391  0.94286520     0.98100
N474        N  0.21188612  0.29411795  0.94630259    -0.07200
N475        N  0.20039151  0.31390163  0.92274789    -0.62600
N476        N  0.19129591  0.29159702  0.52654097    -0.06500
N477        N  0.17275528  0.30201471  0.55048376    -0.59300
N478        N  0.21118268  0.31615917  0.51892016    -0.07800
N479        N  0.20663411  0.34315071  0.53773375    -0.62200
N480        N  0.19060805  0.27014964  0.95232684    -0.06800
N481        N  0.16462236  0.27352721  0.93252930    -0.59300
Mn482      Mn  0.24714723  0.31345739  0.98313381     1.20200
Mn483      Mn  0.18852950  0.24201329  0.99912380     1.10100
Cl484      Cl  0.25358323  0.25374174  0.50475101    -0.87300
C485        C  0.17099143  0.30089952  0.91465328     0.95000
C486        C  0.18296148  0.33420187  0.55747798     0.94800
N487        N  0.46576604  0.19161381  0.78585443    -0.07500
N488        N  0.45432386  0.16627051  0.80278496    -0.59600
N489        N  0.44394197  0.21711484  0.71352683    -0.07100
N490        N  0.42006421  0.21044379  0.69167767    -0.61700
N491        N  0.46677617  0.19400179  0.71089035    -0.06700
N492        N  0.45880166  0.17117379  0.68738223    -0.59600
N493        N  0.44629056  0.21780670  0.78886075    -0.06400
N494        N  0.42269966  0.21120557  0.80817576    -0.62100
C495        C  0.42722241  0.17887674  0.81652325     0.94700
C496        C  0.42960032  0.18194357  0.67599664     0.94500
N497        N  0.96256661  0.32264903  0.72017772    -0.07700
N498        N  0.96150638  0.34250102  0.69449137    -0.60200
N499        N  0.43678847  0.29689615  0.79412596    -0.05800
N500        N  0.41213737  0.30255599  0.81370851    -0.61400
N501        N  0.45763871  0.32209599  0.79701547    -0.07700
N502        N  0.44675362  0.34576270  0.81837108    -0.60400
N503        N  0.44079411  0.29620866  0.71596748    -0.05400
N504        N  0.42550417  0.29699128  0.68628551    -0.61500
Mn505      Mn  0.44159490  0.25683756  0.75318779     1.18400
C506        C  0.43909886  0.32403922  0.67233017     0.96800
C507        C  0.41806601  0.33326172  0.82922688     0.97500
N508        N  0.04640909  0.18976672  0.70823112    -0.07700
N509        N  0.05511371  0.16596590  0.68623359    -0.64000
N510        N  0.06473552  0.21354504  0.78982871    -0.06500
N511        N  0.07788836  0.21308856  0.82054224    -0.64700
N512        N  0.54189089  0.18896417  0.78837915    -0.07200
N513        N  0.54030915  0.17103020  0.81517930    -0.64300
N514        N  0.06925032  0.21301999  0.71175738    -0.06100
N515        N  0.09384921  0.20504649  0.69235979    -0.65000
Mn516      Mn  0.50506506  0.18998929  0.74852943     1.10700
C517        C  0.08494782  0.17535193  0.67590171     0.98000
C518        C  0.06380025  0.18573674  0.83357024     0.98100
N519        N  0.03907811  0.31628554  0.79629150    -0.07200
N520        N  0.04738762  0.33943484  0.81934068    -0.62600
N521        N  0.05895509  0.29404498  0.71809973    -0.06500
N522        N  0.08272918  0.30252751  0.69966800    -0.59300
N523        N  0.03865652  0.31958377  0.72172594    -0.07800
N524        N  0.04948725  0.34601100  0.70603010    -0.62200
N525        N  0.06228061  0.29358064  0.79305160    -0.06800
N526        N  0.08675995  0.30111629  0.81398342    -0.59300
Mn527      Mn  0.00000348  0.32089000  0.75942957     1.20200
Mn528      Mn  0.06449484  0.25372697  0.75309810     1.10100
Cl529      Cl  0.00339070  0.25562966  0.75267846    -0.87300
C530        C  0.07722335  0.32965664  0.82964962     0.95000
C531        C  0.07724247  0.33510186  0.69265377     0.94800
N532        N  0.28878087  0.44064270  0.80310704    -0.07500
N533        N  0.29806535  0.41328615  0.82003781    -0.59600
N534        N  0.27178321  0.01474136  0.83245221    -0.07100
N535        N  0.26750010  0.04172303  0.85156734    -0.61700
N536        N  0.24632773  0.99477131  0.83219257    -0.06700
N537        N  0.22404493  0.00831204  0.85104109    -0.59600
N538        N  0.31337414  0.46186189  0.80248220    -0.06400
N539        N  0.33949099  0.44895151  0.81889491    -0.62100
C540        C  0.33016067  0.41790082  0.82952716     0.94700
C541        C  0.23783933  0.03756562  0.86326093     0.94500
N542        N  0.28018799  0.08402579  0.75746769    -0.07700
N543        N  0.29038243  0.11593325  0.75998472    -0.60200
N544        N  0.32918653  0.52029094  0.74653189    -0.05800
N545        N  0.35987405  0.51259342  0.74184542    -0.61400
N546        N  0.31615332  0.53489356  0.71981601    -0.07700
N547        N  0.33717197  0.53712204  0.69681776    -0.60400
N548        N  0.28951710  0.06853254  0.78508274    -0.05400
N549        N  0.30264919  0.09001569  0.80711433    -0.61500
Mn550      Mn  0.30253576  0.01506409  0.79008864     1.18400
C551        C  0.30422019  0.11934482  0.79139729     0.96800
C552        C  0.36398913  0.52338754  0.71058910     0.97500
N553        N  0.18927534  0.97731552  0.78299957    -0.07700
N554        N  0.16835779  0.97613822  0.80627132    -0.64000
N555        N  0.21677745  0.44299681  0.71783981    -0.06500
N556        N  0.20268100  0.42065290  0.69727043    -0.64700
N557        N  0.22638496  0.42870576  0.74604076    -0.07200
N558        N  0.21624126  0.39688206  0.74527728    -0.64300
N559        N  0.17630704  0.99142364  0.75608517    -0.06100
N560        N  0.14582368  0.99986107  0.76071413    -0.65000
Mn561      Mn  0.23702443  0.46037795  0.79133757     1.10700
C562        C  0.14167825  0.99010230  0.79226899     0.98000
C563        C  0.20154368  0.39217711  0.71452023     0.98100
N564        N  0.25975288  0.51778342  0.66968908    -0.07200
N565        N  0.28185853  0.50514997  0.65009870    -0.62600
N566        N  0.19199956  0.04961765  0.70211614    -0.06500
N567        N  0.16511251  0.06053920  0.68624709    -0.59300
N568        N  0.21522397  0.07244122  0.70097031    -0.07800
N569        N  0.20380669  0.09924238  0.68395294    -0.62200
N570        N  0.23498867  0.49695393  0.66984357    -0.06800
N571        N  0.23945054  0.47025504  0.65043225    -0.59300
Mn572      Mn  0.26773851  0.05316736  0.71124424     1.20200
Mn573      Mn  0.20407224  0.49651043  0.71155666     1.10100
Cl574      Cl  0.25341796  0.00544735  0.75061455    -0.87300
C575        C  0.26849709  0.47566403  0.63789748     0.95000
C576        C  0.17185562  0.09201390  0.67527010     0.94800
C577        C  0.36256653  0.11871728  0.79006886    -0.27700
C578        C  0.33495812  0.13729770  0.79826435    -0.15700
C579        C  0.33853750  0.16547286  0.82040240     0.34900
C580        C  0.36991386  0.17612870  0.83098686    -0.27100
C581        C  0.39763540  0.15877420  0.82053179    -0.16400
C582        C  0.39345815  0.12822907  0.80237304     0.36000
N583        N  0.42064830  0.10738952  0.79530648    -0.90600
H584        H  0.35991798  0.09545557  0.77520925     0.17100
H585        H  0.37273326  0.19961544  0.84538784     0.17100
N586        N  0.31128087  0.18392903  0.83218196    -0.89600
H587        H  0.42212551  0.10559255  0.76949418     0.34500
H588        H  0.41641319  0.08319229  0.80407657     0.39600
H589        H  0.28944387  0.17381718  0.82210597     0.39200
H590        H  0.31274154  0.20862055  0.82356264     0.34100
C591        C  0.13152574  0.34482502  0.67260938    -0.27700
C592        C  0.10624623  0.35638613  0.69204464    -0.15700
C593        C  0.11341083  0.37865350  0.71933057     0.34900
C594        C  0.14556099  0.38659185  0.72837575    -0.27100
C595        C  0.17091018  0.37395607  0.70985475    -0.16400
C596        C  0.16386319  0.35392948  0.68101870     0.36000
N597        N  0.18956818  0.34312654  0.66054905    -0.90600
H598        H  0.12614692  0.32715064  0.65200481     0.17100
H599        H  0.15064564  0.40418427  0.74915252     0.17100
N600        N  0.08818080  0.39240648  0.73865935    -0.89600
H601        H  0.18028119  0.32836883  0.64017458     0.34500
H602        H  0.20475887  0.32745517  0.67471736     0.39600
H603        H  0.09227953  0.38529042  0.76336713     0.39200
H604        H  0.08954873  0.41877940  0.73783509     0.34100
C605        C  0.28397302  0.41519852  0.63470208    -0.27700
C606        C  0.28623781  0.44784654  0.62168337    -0.15700
C607        C  0.30154039  0.45198390  0.59158154     0.34900
C608        C  0.31236097  0.42338008  0.57412965    -0.27100
C609        C  0.30749958  0.39053218  0.58569359    -0.16400
C610        C  0.29409487  0.38642715  0.61680298     0.36000
N611        N  0.28751684  0.35300680  0.62824721    -0.90600
H612        H  0.27222965  0.41192345  0.65789596     0.17100
H613        H  0.32157624  0.42658682  0.54965275     0.17100
N614        N  0.30363126  0.48441483  0.57666770    -0.89600
H615        H  0.27640716  0.35433009  0.65103427     0.34500
H616        H  0.30972136  0.34095011  0.63262710     0.39600
H617        H  0.31678491  0.50068841  0.59321847     0.39200
H618        H  0.28019128  0.49400897  0.57303649     0.34100
C619        C  0.18478255  0.09019051  0.91965706    -0.27700
C620        C  0.19651022  0.12305979  0.91437854    -0.15700
C621        C  0.21812936  0.12769447  0.88870478     0.34900
C622        C  0.22974551  0.09937248  0.87147800    -0.27100
C623        C  0.22040904  0.06624127  0.87889118    -0.16400
C624        C  0.19651158  0.06177454  0.90206653     0.36000
N625        N  0.18612397  0.02839722  0.90981690    -0.90600
H626        H  0.16879659  0.08616958  0.93973084     0.17100
H627        H  0.24748267  0.10340170  0.85302825     0.17100
N628        N  0.23118635  0.16037812  0.88151256    -0.89600
H629        H  0.16092212  0.02724813  0.90587543     0.34500
H630        H  0.19155251  0.02473379  0.93507944     0.39600
H631        H  0.22035531  0.17968067  0.89522695     0.39200
H632        H  0.22508565  0.16508633  0.85655638     0.34100
C633        C  0.08917705  0.33332994  0.88778809    -0.27700
C634        C  0.09657366  0.34511841  0.85669207    -0.15700
C635        C  0.12888258  0.35289317  0.85022765     0.34900
C636        C  0.15360504  0.34027591  0.87102083    -0.27100
C637        C  0.14580637  0.32059581  0.89790202    -0.16400
C638        C  0.11377817  0.31995464  0.90833580     0.36000
N639        N  0.10599984  0.30437167  0.93873655    -0.90600
H640        H  0.06418790  0.32865615  0.89337313     0.17100
H641        H  0.17854259  0.34305552  0.86438528     0.17100
N642        N  0.13703466  0.36964714  0.82059296    -0.89600
H643        H  0.08946853  0.28475233  0.93298862     0.34500
H644        H  0.09466956  0.32246574  0.95354557     0.39600
H645        H  0.12519029  0.39300932  0.82015512     0.39200
H646        H  0.12858613  0.35510828  0.79988758     0.34100
C647        C  0.38908395  0.19410664  0.60006204    -0.27700
C648        C  0.35811012  0.19312086  0.61273758    -0.15700
C649        C  0.35221109  0.17291672  0.63997857     0.34900
C650        C  0.37851513  0.15878636  0.65757516    -0.27100
C651        C  0.41002814  0.16671714  0.64904501    -0.16400
C652        C  0.41533368  0.18017123  0.61793427     0.36000
N653        N  0.44782160  0.18509910  0.60782759    -0.90600
H654        H  0.39315064  0.20746813  0.57743141     0.17100
H655        H  0.37450073  0.14788817  0.68146033     0.17100
N656        N  0.32020174  0.16937197  0.65156386    -0.89600
H657        H  0.44764566  0.19692554  0.58495653     0.34500
H658        H  0.45790777  0.16101732  0.60419163     0.39600
H659        H  0.32028299  0.17889336  0.67607009     0.39200
H660        H  0.31469534  0.14353353  0.65182790     0.34100
C661        C  0.39276742  0.12715109  0.92097178    -0.27700
C662        C  0.38012165  0.09444654  0.92352218    -0.15700
C663        C  0.34641881  0.08927455  0.92112054     0.34900
C664        C  0.32604138  0.11749043  0.92285001    -0.27100
C665        C  0.33930108  0.15009315  0.92837043    -0.16400
C666        C  0.37248186  0.15529791  0.92360285     0.36000
N667        N  0.38623228  0.18867089  0.92505011    -0.90600
H668        H  0.41874722  0.13104777  0.92119019     0.17100
H669        H  0.30018259  0.11359151  0.92426037     0.17100
N670        N  0.33327302  0.05549758  0.91947421    -0.89600
H671        H  0.39824527  0.19217132  0.90314330     0.34500
H672        H  0.40351107  0.19000021  0.94495043     0.39600
H673        H  0.34006642  0.04416431  0.89712189     0.39200
H674        H  0.30796274  0.05619462  0.91822012     0.34100
C675        C  0.15210473  0.41994965  0.57258236    -0.27700
C676        C  0.11912985  0.41237214  0.56808245    -0.15700
C677        C  0.10799658  0.37916138  0.57186329     0.34900
C678        C  0.13038907  0.35303460  0.57554245    -0.27100
C679        C  0.16348654  0.35992263  0.57393024    -0.16400
C680        C  0.17452933  0.39395474  0.57677662     0.36000
N681        N  0.20825028  0.40268482  0.58084650    -0.90600
H682        H  0.16050535  0.44590689  0.57133361     0.17100
H683        H  0.12157877  0.32713272  0.57489965     0.17100
N684        N  0.07187810  0.37681189  0.06752782    -0.89600
H685        H  0.21781387  0.40379884  0.55726116     0.34500
H686        H  0.22048325  0.38405855  0.59435460     0.39600
H687        H  0.06448530  0.36429515  0.08846170     0.39200
H688        H  0.06711767  0.36098088  0.04664591     0.34100
C689        C  0.10020127  0.00687548  0.86818422    -0.27700
C690        C  0.08475132  0.47518630  0.86841799    -0.15700
C691        C  0.07505733  0.45794753  0.83849189     0.34900
C692        C  0.08844534  0.46739543  0.80879976    -0.27100
C693        C  0.11299821  0.99408089  0.81132851    -0.16400
C694        C  0.11552482  0.01587449  0.83965982     0.36000
N695        N  0.13566689  0.04571829  0.84109432    -0.90600
H696        H  0.10287092  0.02331537  0.89014172     0.17100
H697        H  0.08413586  0.45158949  0.78667027     0.17100
N698        N  0.05283377  0.43003952  0.83848284    -0.89600
H699        H  0.12083998  0.06650397  0.84616802     0.34500
H700        H  0.14504970  0.05012760  0.81803016     0.39600
H701        H  0.06427599  0.40867096  0.82869928     0.39200
H702        H  0.03296478  0.43560174  0.82250830     0.34100
C703        C  0.41936415  0.06171814  0.65329716    -0.27700
C704        C  0.41574896  0.03855657  0.62652575    -0.15700
C705        C  0.40236924  0.50358265  0.63454328     0.34900
C706        C  0.39093004  0.49655477  0.66571588    -0.27100
C707        C  0.39263018  0.52113877  0.69137685    -0.16400
C708        C  0.40826246  0.05352195  0.68439549     0.36000
N709        N  0.41029200  0.07798273  0.71120060    -0.90600
H710        H  0.43042674  0.08625728  0.64996621     0.17100
H711        H  0.37758152  0.47322812  0.66873167     0.17100
N712        N  0.40065523  0.47790636  0.60870859    -0.89600
H713        H  0.39760030  0.09955826  0.70366111     0.34500
H714        H  0.43463267  0.08473123  0.71538247     0.39600
H715        H  0.37646514  0.47037769  0.60466326     0.39200
H716        H  0.41393697  0.45708346  0.61719522     0.34100
C717        C  0.46147652  0.32778557  0.61793481    -0.27700
C718        C  0.43489028  0.33331107  0.63752930    -0.15700
C719        C  0.41162317  0.35765187  0.62833045     0.34900
C720        C  0.41785093  0.37947573  0.60230682    -0.27100
C721        C  0.44733452  0.37753221  0.58652140    -0.16400
C722        C  0.46818650  0.35020015  0.59281024     0.36000
N723        N  0.49720249  0.34638955  0.57525846    -0.90600
H724        H  0.47927321  0.30876069  0.62490946     0.17100
H725        H  0.40124826  0.39995650  0.59663485     0.17100
N726        N  0.88396200  0.37017214  0.64949413    -0.89600
H727        H  0.49632597  0.32273703  0.56302375     0.34500
H728        H  0.51649175  0.34602584  0.59309115     0.39600
H729        H  0.86912010  0.34869218  0.64682698     0.39200
H730        H  0.87048883  0.39035389  0.63977424     0.34100
C731        C  0.07761822  0.14081546  0.91206419    -0.27700
C732        C  0.04481731  0.13581775  0.91846690    -0.15700
C733        C  0.52418760  0.15632677  0.91025727     0.34900
C734        C  0.53143004  0.17877790  0.88543047    -0.27100
C735        C  0.06149230  0.17968080  0.86899218    -0.16400
C736        C  0.08618355  0.16246119  0.88674167     0.36000
N737        N  0.11893173  0.16416164  0.87657424    -0.90600
H738        H  0.09602226  0.12499879  0.92387112     0.14300
H739        H  0.51201605  0.19322280  0.87348982     0.17100
N740        N  0.49173522  0.15351732  0.92121696    -0.89600
H741        H  0.13401642  0.14894242  0.89170158     0.34500
H742        H  0.12694766  0.18901911  0.88068362     0.39600
H743        H  0.49244536  0.16009175  0.94657338     0.39200
H744        H  0.47647425  0.17095124  0.90917967     0.34100
C745        C  0.35279677  0.85036955  0.39405276     0.85100
C746        C  0.33281597  0.87324882  0.37004749    -0.55100
C747        C  0.34974195  0.89481603  0.35073819     0.08100
C748        C  0.38805190  0.89103131  0.35826411     0.19000
C749        C  0.37630778  0.83171911  0.37063925    -0.55800
C750        C  0.39543407  0.85184710  0.35151659     0.08200
C751        C  0.37501962  0.87556399  0.41474972    -0.55400
C752        C  0.39407029  0.89717069  0.39750832     0.08700
H753        H  0.30653689  0.87224586  0.36845123     0.13300
H754        H  0.40257169  0.90810379  0.34331367    -0.01000
H755        H  0.37748573  0.80425793  0.36927706     0.13600
H756        H  0.37550219  0.87604548  0.44176688     0.13300
C757        C  0.10463340  0.60977284  0.10363155     0.85100
C758        C  0.12618725  0.63497374  0.08547440    -0.55100
C759        C  0.14573416  0.65651877  0.10523872     0.08100
C760        C  0.14067290  0.65020666  0.14398982     0.19000
C761        C  0.12858565  0.59115726  0.12757911    -0.55800
C762        C  0.14813517  0.61093257  0.14913698     0.08200
C763        C  0.08505575  0.63233940  0.12700204    -0.55400
C764        C  0.10234181  0.65367555  0.14890987     0.08700
H765        H  0.12626663  0.63531280  0.05850293     0.13300
H766        H  0.15564391  0.66706951  0.16109229    -0.01000
H767        H  0.12968313  0.56367094  0.12746125     0.13600
H768        H  0.05881102  0.63069207  0.12670732     0.13300
N769        N  0.05478385  0.98303149  0.44942394    -0.07500
N770        N  0.07977177  0.97613257  0.43133606    -0.59600
N771        N  0.51969297  0.55170298  0.44096904    -0.07100
N772        N  0.51669642  0.57864088  0.42232829    -0.61700
N773        N  0.04589598  0.55678717  0.46159662    -0.06700
N774        N  0.06183506  0.58499251  0.45677514    -0.59600
N775        N  0.02773708  0.97796684  0.43089962    -0.06400
N776        N  0.03421939  0.96727525  0.40076768    -0.62100
C777        C  0.06665542  0.96650105  0.40103478     0.94700
C778        C  0.04359456  0.59996952  0.43281878     0.94500
N779        N  0.42726983  0.52963256  0.46969439    -0.07700
N780        N  0.40291835  0.54760917  0.96746334    -0.60200
N781        N  0.45368091  0.96033524  0.43286082    -0.05800
N782        N  0.44233001  0.94139406  0.40650283    -0.61400
N783        N  0.43591539  0.95496636  0.45848209    -0.07700
N784        N  0.41285686  0.93218521  0.45007807    -0.60400
N785        N  0.44603492  0.53531252  0.44507501    -0.05400
N786        N  0.43322998  0.55769853  0.42468929    -0.61500
Mn787      Mn  0.48826886  0.50510072  0.43747038     1.18400
C788        C  0.40485570  0.56488268  0.43807450     0.96800
C789        C  0.41671856  0.92325885  0.41748175     0.97500
N790        N  0.06502458  0.55352240  0.03895009    -0.07700
N791        N  0.08722852  0.57719824  0.04776895    -0.64000
N792        N  0.05093395  0.97418198  0.05253078    -0.06500
N793        N  0.06348128  0.95138943  0.07255407    -0.64700
N794        N  0.07156379  0.97693946  0.52799240    -0.07200
N795        N  0.09690917  0.95676410  0.52893923    -0.64300
N796        N  0.04763163  0.54668034  0.06447337    -0.06100
N797        N  0.05817610  0.56531486  0.09103881    -0.65000
Mn798      Mn  0.06167705  0.51731367  0.49454316     1.10700
C799        C  0.08272818  0.58500636  0.08048152     0.98000
C800        C  0.09132189  0.94347660  0.05850401     0.98100
N801        N  0.45227735  0.95376132  0.03765686    -0.07200
N802        N  0.43569920  0.92599242  0.04285640    -0.62600
N803        N  0.47117828  0.53049818  0.06686879    -0.06500
N804        N  0.46443573  0.54173584  0.09669452    -0.59300
N805        N  0.44432895  0.52465989  0.04830613    -0.07800
N806        N  0.41908614  0.53130170  0.06617679    -0.62200
N807        N  0.47790513  0.95657843  0.05854476    -0.06800
N808        N  0.98115672  0.93133654  0.07731254    -0.59300
Mn809      Mn  0.43771462  0.99313433  0.00349326     1.20200
Mn810      Mn  0.00902059  0.00449129  0.06055853     1.10100
Cl811      Cl  0.50042520  0.50260522  0.49976350    -0.87300
C812        C  0.45309691  0.91121823  0.06761751     0.95000
C813        C  0.43203065  0.54189918  0.09625995     0.94800
N814        N  0.29651070  0.69043044  0.48901029    -0.07500
N815        N  0.30204528  0.66344618  0.47042372    -0.59600
N816        N  0.31050534  0.74000435  0.05733983    -0.07100
N817        N  0.33711950  0.73676375  0.07632208    -0.61700
N818        N  0.28945268  0.71610747  0.06436453    -0.06700
N819        N  0.30175692  0.69672339  0.08793817    -0.59600
N820        N  0.31623247  0.71533655  0.48158296    -0.06400
N821        N  0.33557494  0.70522351  0.45819460    -0.62100
C822        C  0.32612887  0.67289817  0.45122753     0.94700
C823        C  0.33134147  0.70983590  0.09507708     0.94500
N824        N  0.27919638  0.83474895  0.02236615    -0.07700
N825        N  0.27645748  0.86379239  0.03856456    -0.60200
N826        N  0.31644211  0.79360854  0.45517290    -0.05800
N827        N  0.34224515  0.80383478  0.43904346    -0.61400
N828        N  0.29049643  0.80987825  0.44407584    -0.07700
N829        N  0.29845970  0.83119445  0.42038612    -0.60400
N830        N  0.30368762  0.81721008  0.03459136    -0.05400
N831        N  0.31834216  0.83415280  0.06009662    -0.61500
Mn832      Mn  0.31169236  0.76713670  0.00963521     1.18400
C833        C  0.30097427  0.86338364  0.06183363     0.96800
C834        C  0.33100465  0.82714600  0.41653564     0.97500
N835        N  0.21070985  0.69791911  0.06159822    -0.07700
N836        N  0.20157375  0.67626963  0.08462885    -0.64000
N837        N  0.19928129  0.68903899  0.47445032    -0.06500
N838        N  0.18423673  0.67223012  0.44919926    -0.64700
N839        N  0.22389026  0.67158630  0.48637890    -0.07200
N840        N  0.22626238  0.64244519  0.47026777    -0.64300
N841        N  0.18543364  0.71527933  0.05042755    -0.06100
N842        N  0.15910160  0.70542451  0.06582164    -0.65000
Mn843      Mn  0.25386178  0.69553704  0.02788159     1.10700
C844        C  0.16916664  0.68162964  0.08836443     0.98000
C845        C  0.20126204  0.64287676  0.44748035     0.98100
N846        N  0.21323450  0.78858774  0.44228323    -0.07200
N847        N  0.20055575  0.80616194  0.41759897    -0.62600
N848        N  0.18654284  0.79386727  0.02448786    -0.06500
N849        N  0.16605455  0.80487129  0.04636986    -0.59300
N850        N  0.20658647  0.81842666  0.01719017    -0.07800
N851        N  0.20010149  0.84614378  0.03422201    -0.62200
N852        N  0.19326106  0.76396193  0.44978966    -0.06800
N853        N  0.16717117  0.76451688  0.42982543    -0.59300
Mn854      Mn  0.24784805  0.81158401  0.47801901     1.20200
Mn855      Mn  0.19198522  0.73918127  0.49819122     1.10100
Cl856      Cl  0.25025309  0.75514521  0.00536583    -0.87300
C857        C  0.17180382  0.79112668  0.41040796     0.95000
C858        C  0.17529364  0.83742029  0.05265958     0.94800
N859        N  0.46566139  0.69285695  0.28274123    -0.07500
N860        N  0.45443645  0.66721825  0.29942418    -0.59600
N861        N  0.44404648  0.71838195  0.21025080    -0.07100
N862        N  0.42039311  0.71127259  0.18822158    -0.61700
N863        N  0.46708489  0.69542988  0.20795968    -0.06700
N864        N  0.45950774  0.67231708  0.18464347    -0.59600
N865        N  0.44587928  0.71881024  0.28567949    -0.06400
N866        N  0.42216146  0.71169281  0.30470890    -0.62100
C867        C  0.42721087  0.67941479  0.31311850     0.94700
C868        C  0.43037348  0.68272949  0.17283055     0.94500
N869        N  0.96173916  0.82179530  0.21821487    -0.07700
N870        N  0.96171656  0.84085974  0.19201213    -0.60200
N871        N  0.43709805  0.79859457  0.29093285    -0.05800
N872        N  0.41255410  0.80443056  0.31057869    -0.61400
N873        N  0.45801737  0.82381265  0.29361145    -0.07700
N874        N  0.44722458  0.84761830  0.31489493    -0.60400
N875        N  0.43995964  0.79784217  0.21316988    -0.05400
N876        N  0.42254228  0.80018178  0.18481200    -0.61500
Mn877      Mn  0.44138561  0.75819160  0.25008020     1.18400
C878        C  0.43470036  0.82834042  0.17147909     0.96800
C879        C  0.41858976  0.83518136  0.32594445     0.97500
N880        N  0.04452851  0.68890388  0.20710318    -0.07700
N881        N  0.05335951  0.66481229  0.18551359    -0.64000
N882        N  0.06379695  0.71278033  0.28792290    -0.06500
N883        N  0.07887380  0.71139020  0.31769117    -0.64700
N884        N  0.54162476  0.69072684  0.28560752    -0.07200
N885        N  0.54059373  0.67197752  0.31188485    -0.64300
N886        N  0.06723708  0.71231425  0.21020218    -0.06100
N887        N  0.09188963  0.70425400  0.19103887    -0.65000
Mn888      Mn  0.50502940  0.69151909  0.24570594     1.10700
C889        C  0.08311366  0.67434471  0.17513308     0.98000
C890        C  0.06493165  0.68417529  0.33108487     0.98100
N891        N  0.03759134  0.81491971  0.29486813    -0.07200
N892        N  0.04555995  0.83634999  0.31960493    -0.62600
N893        N  0.05743880  0.79307551  0.21624570    -0.06500
N894        N  0.08131843  0.80131478  0.19782693    -0.59300
N895        N  0.03759086  0.81893310  0.22023881    -0.07800
N896        N  0.04888368  0.84534105  0.20483766    -0.62200
N897        N  0.06031094  0.79176292  0.29125780    -0.06800
N898        N  0.08399692  0.79700241  0.31358816    -0.59300
Mn899      Mn  0.99876820  0.82052253  0.25788263     1.20200
Mn900      Mn  0.06284198  0.75277847  0.25117392     1.10100
Cl901      Cl  0.00189691  0.75525017  0.25103825    -0.87300
C902        C  0.07457993  0.82468748  0.33056062     0.95000
C903        C  0.07640006  0.83406360  0.19120947     0.94800
N904        N  0.28852779  0.93995249  0.29947288    -0.07500
N905        N  0.29827561  0.91269496  0.31622845    -0.59600
N906        N  0.27142574  0.51430465  0.33270017    -0.07100
N907        N  0.26722720  0.54041177  0.35295590    -0.61700
N908        N  0.24652039  0.49365933  0.33244423    -0.06700
N909        N  0.22468470  0.50560377  0.35266050    -0.59600
N910        N  0.31279655  0.96162890  0.29892933    -0.06400
N911        N  0.33911010  0.94913526  0.31528852    -0.62100
C912        C  0.33024903  0.91789938  0.32575337     0.94700
C913        C  0.23824074  0.53464345  0.36555449     0.94500
N914        N  0.27886358  0.58478552  0.25810107    -0.07700
N915        N  0.29020228  0.61625275  0.26020456    -0.60200
N916        N  0.32694108  0.02139811  0.24408401    -0.05800
N917        N  0.35766232  0.01427699  0.23889604    -0.61400
N918        N  0.31335566  0.03623885  0.21779080    -0.07700
N919        N  0.33406960  0.03915817  0.19454195    -0.60400
N920        N  0.28802398  0.56914139  0.28573603    -0.05400
N921        N  0.30210604  0.59032907  0.30741980    -0.61500
Mn922      Mn  0.30174140  0.51568357  0.29038688     1.18400
C923        C  0.30444648  0.61936301  0.29139888     0.96800
C924        C  0.36125127  0.02558010  0.20773472     0.97500
N925        N  0.18964878  0.47831253  0.28273738    -0.07700
N926        N  0.16969622  0.47875142  0.30688789    -0.64000
N927        N  0.21480131  0.94257118  0.21609440    -0.06500
N928        N  0.20140005  0.92023042  0.19500746    -0.64700
N929        N  0.22502692  0.92793325  0.24387274    -0.07200
N930        N  0.21606679  0.89569769  0.24230793    -0.64300
N931        N  0.17636237  0.49254072  0.25601390    -0.06100
N932        N  0.14650468  0.50259636  0.26173723    -0.65000
Mn933      Mn  0.23639367  0.95915203  0.28959805     1.10700
C934        C  0.14326249  0.49386148  0.29379732     0.98000
C935        C  0.20124300  0.89121360  0.21151960     0.98100
N936        N  0.25661873  0.01909177  0.16844441    -0.07200
N937        N  0.27920376  0.00722107  0.14904283    -0.62600
N938        N  0.19147867  0.55046518  0.20183494    -0.06500
N939        N  0.16461808  0.56123881  0.18582502    -0.59300
N940        N  0.21454082  0.57346058  0.20097093    -0.07800
N941        N  0.20307740  0.60025000  0.18397055    -0.62200
N942        N  0.23238073  0.99755020  0.16857353    -0.06800
N943        N  0.23779066  0.97105382  0.14920936    -0.59300
Mn944      Mn  0.26705264  0.55456195  0.21171591     1.20200
Mn945      Mn  0.20154248  0.99606683  0.21080150     1.10100
Cl946      Cl  0.25301178  0.50623029  0.25052956    -0.87300
C947        C  0.26679772  0.97738108  0.13684071     0.95000
C948        C  0.17122955  0.59281721  0.17503368     0.94800
C949        C  0.36287946  0.61797478  0.28938682    -0.27700
C950        C  0.33545740  0.63672080  0.29798306    -0.15700
C951        C  0.33935267  0.66460823  0.32035249     0.34900
C952        C  0.37080334  0.67568234  0.32986218    -0.27100
C953        C  0.39827996  0.65874390  0.31838336    -0.16400
C954        C  0.39407241  0.62766148  0.30098008     0.36000
N955        N  0.42144346  0.60667186  0.29425481    -0.90600
H956        H  0.35970482  0.59464589  0.27472996     0.17100
H957        H  0.37381059  0.69909621  0.34435966     0.17100
N958        N  0.31229900  0.68217593  0.33371170    -0.89600
H959        H  0.41392021  0.58431838  0.28167329     0.34500
H960        H  0.43185077  0.59941388  0.31723058     0.39600
H961        H  0.29023217  0.67172007  0.32457218     0.39200
H962        H  0.31280599  0.70703158  0.32550122     0.34100
C963        C  0.13061965  0.84350096  0.17040715    -0.27700
C964        C  0.10574829  0.85488087  0.19050240    -0.15700
C965        C  0.11347580  0.87690342  0.21782895     0.34900
C966        C  0.14576327  0.88461473  0.22634884    -0.27100
C967        C  0.17074255  0.87255404  0.20699145    -0.16400
C968        C  0.16306432  0.85300868  0.17790233     0.36000
N969        N  0.18812095  0.84330192  0.15614864    -0.90600
H970        H  0.12482095  0.82605853  0.14971102     0.17100
H971        H  0.15119460  0.90190222  0.24729646     0.17100
N972        N  0.08869226  0.89075863  0.23770336    -0.89600
H973        H  0.17830417  0.82908021  0.13559318     0.34500
H974        H  0.20399311  0.82745245  0.16921650     0.39600
H975        H  0.09313889  0.88340486  0.26227209     0.39200
H976        H  0.09030266  0.91716007  0.23718861     0.34100
C977        C  0.28421560  0.91768088  0.13591767    -0.27700
C978        C  0.28576201  0.94983978  0.12179735    -0.15700
C979        C  0.30098120  0.95327264  0.09154387     0.34900
C980        C  0.31052636  0.92408799  0.07408023    -0.27100
C981        C  0.30537673  0.89155821  0.08639536    -0.16400
C982        C  0.29368405  0.88841712  0.11842467     0.36000
N983        N  0.28810867  0.85545081  0.13143758    -0.90600
H984        H  0.27323847  0.91510757  0.15963298     0.17100
H985        H  0.31919866  0.92664384  0.04928921     0.17100
N986        N  0.30464109  0.98560813  0.07679166    -0.89600
H987        H  0.27860199  0.85756813  0.15499412     0.34500
H988        H  0.31056019  0.84359052  0.13470370     0.39600
H989        H  0.31862681  0.00105110  0.09343224     0.39200
H990        H  0.28174421  0.99654514  0.07333534     0.34100
C991        C  0.19210117  0.58334318  0.42992213    -0.27700
C992        C  0.19838000  0.61678844  0.42091274    -0.15700
C993        C  0.21286859  0.62267870  0.39077418     0.34900
C994        C  0.22403562  0.59519074  0.37196534    -0.27100
C995        C  0.22056102  0.56178908  0.38264662    -0.16400
C996        C  0.20281458  0.55572919  0.41074351     0.36000
N997        N  0.19783005  0.52182515  0.42125409    -0.90600
H998        H  0.18133621  0.57866588  0.45338859     0.17100
H999        H  0.23693397  0.60011728  0.34978169     0.17100
N1000       N  0.21874822  0.65661539  0.38071345    -0.89600
H1001       H  0.17287497  0.51788211  0.42227900     0.34500
H1002       H  0.20823773  0.51974641  0.44533746     0.39600
H1003       H  0.20756087  0.65950299  0.35709695     0.39200
H1004       H  0.24374080  0.65971342  0.37873906     0.34100
C1005       C  0.08795434  0.82226444  0.38795157    -0.27700
C1006       C  0.09411028  0.83802786  0.35831354    -0.15700
C1007       C  0.12608460  0.84661765  0.35130359     0.34900
C1008       C  0.15153359  0.83230703  0.36981543    -0.27100
C1009       C  0.14502960  0.80963691  0.39480565    -0.16400
C1010       C  0.11323416  0.80662596  0.40575147     0.36000
N1011       N  0.10627026  0.78675513  0.43388092    -0.90600
H1012       H  0.06323789  0.81645998  0.39376646     0.17100
H1013       H  0.17614579  0.83649653  0.36271880     0.17100
N1014       N  0.13313800  0.86522754  0.32239386    -0.89600
H1015       H  0.08993304  0.76760806  0.42589469     0.34500
H1016       H  0.09500673  0.80238301  0.45113887     0.39600
H1017       H  0.12058959  0.88821178  0.32331207     0.39200
H1018       H  0.12474943  0.85150574  0.30118702     0.34100
C1019       C  0.38810369  0.69126587  0.09727600    -0.27700
C1020       C  0.35743396  0.69018710  0.11070590    -0.15700
C1021       C  0.35260612  0.67052661  0.13866890     0.34900
C1022       C  0.37962100  0.65747354  0.15614680    -0.27100
C1023       C  0.41069045  0.66603567  0.14676146    -0.16400
C1024       C  0.41491111  0.67840774  0.11506137     0.36000
N1025       N  0.44684041  0.68299321  0.10361019    -0.90600
H1026       H  0.39165681  0.70407365  0.07421626     0.17100
H1027       H  0.37649956  0.64672460  0.18032696     0.17100
N1028       N  0.32099788  0.66653010  0.15106689    -0.89600
H1029       H  0.45047686  0.70882116  0.10001809     0.34500
H1030       H  0.44789538  0.67039743  0.08050419     0.39600
H1031       H  0.32139811  0.67664399  0.17535283     0.39200
H1032       H  0.31616411  0.64057725  0.15212994     0.34100
C1033       C  0.39667741  0.62392164  0.42300090    -0.27700
C1034       C  0.38342598  0.59161491  0.42636080    -0.15700
C1035       C  0.34975192  0.58700075  0.42551652     0.34900
C1036       C  0.33003457  0.61558327  0.42712231    -0.27100
C1037       C  0.34400464  0.64796701  0.43171504    -0.16400
C1038       C  0.37714613  0.65249313  0.42634193     0.36000
N1039       N  0.39168001  0.68550010  0.42793769    -0.90600
H1040       H  0.42268956  0.62719777  0.42238796     0.17100
H1041       H  0.30420478  0.61221564  0.42933875     0.17100
N1042       N  0.33611087  0.55347801  0.42594705    -0.89600
H1043       H  0.40315691  0.68904085  0.40573419     0.34500
H1044       H  0.40948070  0.68608161  0.44740586     0.39600
H1045       H  0.34169590  0.54099467  0.40376806     0.39200
H1046       H  0.31083211  0.55460473  0.42595773     0.34100
C1047       C  0.14531095  0.92285746  0.07562193    -0.27700
C1048       C  0.11228758  0.91641483  0.06991992    -0.15700
C1049       C  0.10028119  0.88318715  0.07001694     0.34900
C1050       C  0.12205615  0.85631568  0.06964512    -0.27100
C1051       C  0.15538306  0.86280646  0.06902746    -0.16400
C1052       C  0.16715952  0.89613235  0.07599867     0.36000
N1053       N  0.20086634  0.90373002  0.08255048    -0.90600
H1054       H  0.15425156  0.94871453  0.07753590     0.17100
H1055       H  0.11263447  0.83079014  0.06587930     0.17100
N1056       N  0.06791407  0.87024215  0.55660362    -0.89600
H1057       H  0.21359522  0.89996388  0.06094519     0.34500
H1058       H  0.21005970  0.88779771  0.10095810     0.39600
H1059       H  0.05588465  0.87802829  0.57771082     0.39200
H1060       H  0.06362132  0.84424294  0.55346919     0.34100
C1061       C  0.10718148  0.50419682  0.37287563    -0.27700
C1062       C  0.08252107  0.97462860  0.37046119    -0.15700
C1063       C  0.07504290  0.95716147  0.34004730     0.34900
C1064       C  0.08974851  0.96758249  0.31125206    -0.27100
C1065       C  0.11535300  0.49819602  0.31391752    -0.16400
C1066       C  0.12077954  0.51619141  0.34447954     0.36000
N1067       N  0.14242859  0.54479416  0.34801708    -0.90600
H1068       H  0.11225903  0.51776040  0.39632837     0.17100
H1069       H  0.08718598  0.95204122  0.28870562     0.17100
N1070       N  0.05372879  0.92827433  0.33882758    -0.89600
H1071       H  0.12920012  0.56534242  0.35683906     0.34500
H1072       H  0.15028426  0.55177970  0.32485292     0.39600
H1073       H  0.06486847  0.90946459  0.35323502     0.39200
H1074       H  0.05088625  0.91831528  0.31455156     0.34100
C1075       C  0.42446196  0.55689950  0.15530003    -0.27700
C1076       C  0.41640950  0.53597175  0.12742584    -0.15700
C1077       C  0.40071542  0.00808672  0.13151787     0.34900
C1078       C  0.38902290  0.00023891  0.16238612    -0.27100
C1079       C  0.38989590  0.02445780  0.18835600    -0.16400
C1080       C  0.41195618  0.55014303  0.18615831     0.36000
N1081       N  0.41785537  0.57323496  0.21381128    -0.90600
H1082       H  0.43970410  0.57900270  0.15287463     0.17100
H1083       H  0.37648871  0.97635657  0.16503421     0.17100
N1084       N  0.40109321  0.98245875  0.10573776    -0.89600
H1085       H  0.40966702  0.59725831  0.20676611     0.34500
H1086       H  0.44281404  0.57480291  0.21881251     0.39600
H1087       H  0.37758613  0.97295465  0.10141489     0.39200
H1088       H  0.41596506  0.96292275  0.11449301     0.34100
C1089       C  0.45280695  0.83106511  0.11530941    -0.27700
C1090       C  0.42860598  0.83893647  0.13733106    -0.15700
C1091       C  0.40745469  0.86606604  0.13082877     0.34900
C1092       C  0.41331870  0.88723267  0.10425816    -0.27100
C1093       C  0.44115490  0.88271067  0.08613456    -0.16400
C1094       C  0.45989984  0.85346449  0.09030949     0.36000
N1095       N  0.48734725  0.84764674  0.07068779    -0.90600
H1096       H  0.46907745  0.81010479  0.12038511     0.17100
H1097       H  0.39814043  0.90912714  0.09999249     0.17100
N1098       N  0.88511566  0.86947978  0.15112337    -0.89600
H1099       H  0.48408986  0.82420103  0.05822953     0.34500
H1100       H  0.50776677  0.84589016  0.08691249     0.39600
H1101       H  0.86997906  0.84829112  0.14903517     0.39200
H1102       H  0.87125989  0.89013438  0.14286818     0.34100
C1103       C  0.08462077  0.62912897  0.40148664    -0.27700
C1104       C  0.05415249  0.62969037  0.41539695    -0.15700
C1105       C  0.52711042  0.65272960  0.40639282     0.34900
C1106       C  0.53433875  0.67673973  0.38293298    -0.27100
C1107       C  0.06771937  0.67487413  0.36586886    -0.16400
C1108       C  0.09144226  0.65143924  0.37612889     0.36000
N1109       N  0.12043715  0.64784031  0.35813940    -0.90600
H1110       H  0.10153263  0.60904167  0.40771519     0.14300
H1111       H  0.51509688  0.69271722  0.37287935     0.17100
N1112       N  0.49489906  0.64997116  0.41802466    -0.89600
H1113       H  0.13514025  0.62882946  0.36837928     0.34500
H1114       H  0.13350126  0.67047059  0.36142115     0.39600
H1115       H  0.49628174  0.65509912  0.44365671     0.39200
H1116       H  0.47973093  0.66833106  0.40730379     0.34100
C1117       C  0.35285870  0.85050510  0.89750516     0.85100
C1118       C  0.33302314  0.87332590  0.87324307    -0.55100
C1119       C  0.35013851  0.89424878  0.85342170     0.08100
C1120       C  0.38825662  0.89034968  0.86076595     0.19000
C1121       C  0.37618995  0.83133924  0.87394924    -0.55800
C1122       C  0.39537706  0.85122846  0.85444151     0.08200
C1123       C  0.37547399  0.87574615  0.91756677    -0.55400
C1124       C  0.39438804  0.89694844  0.89974412     0.08700
H1125       H  0.30673626  0.87269816  0.87177654     0.13300
H1126       H  0.40277177  0.90715224  0.84552826    -0.01000
H1127       H  0.37720213  0.80387076  0.87278750     0.13600
H1128       H  0.37612860  0.87677273  0.94458868     0.13300
C1129       C  0.10493851  0.61103848  0.60358280     0.85100
C1130       C  0.12730930  0.63500130  0.58491168    -0.55100
C1131       C  0.14765474  0.65621701  0.60417026     0.08100
C1132       C  0.14220783  0.65116889  0.64316152     0.19000
C1133       C  0.12832826  0.59226125  0.62795476    -0.55800
C1134       C  0.14855222  0.61183044  0.64902292     0.08200
C1135       C  0.08600735  0.63488613  0.62657187    -0.55400
C1136       C  0.10388854  0.65602590  0.64834441     0.08700
H1137       H  0.12743681  0.63462211  0.55792404     0.13300
H1138       H  0.15776699  0.66783259  0.65989095    -0.01000
H1139       H  0.12869563  0.56476679  0.62832403     0.13600
H1140       H  0.05974362  0.63391574  0.62643556     0.13300
N1141       N  0.05344051  0.98578617  0.94793322    -0.07500
N1142       N  0.07852601  0.97941793  0.92978036    -0.59600
N1143       N  0.52258430  0.55086832  0.93933257    -0.07100
N1144       N  0.52070419  0.57753888  0.92009436    -0.61700
N1145       N  0.04481311  0.55738711  0.96087333    -0.06700
N1146       N  0.05979266  0.58625540  0.95646962    -0.59600
N1147       N  0.02648424  0.98091968  0.92919912    -0.06400
N1148       N  0.03306686  0.97077441  0.89892076    -0.62100
C1149       C  0.06549205  0.97000554  0.89936934     0.94700
C1150       C  0.04128323  0.60096471  0.93251168     0.94500
N1151       N  0.42939674  0.52926832  0.96938102    -0.07700
N1152       N  0.40063493  0.54773495  0.46630628    -0.60200
N1153       N  0.45240090  0.96204135  0.93318948    -0.05800
N1154       N  0.44156279  0.94225104  0.90728093    -0.61400
N1155       N  0.43487576  0.95664694  0.95898395    -0.07700
N1156       N  0.41252863  0.93304940  0.95123452    -0.60400
N1157       N  0.44756032  0.53548852  0.94441889    -0.05400
N1158       N  0.43421319  0.55862398  0.92505466    -0.61500
Mn1159     Mn  0.48995694  0.50466922  0.93649884     1.18400
C1160       C  0.40626676  0.56559108  0.93970112     0.96800
C1161       C  0.41658096  0.92364645  0.91887990     0.97500
N1162       N  0.06551945  0.55334802  0.53976533    -0.07700
N1163       N  0.08746084  0.57742643  0.54818928    -0.64000
N1164       N  0.05338542  0.97110010  0.55301700    -0.06500
N1165       N  0.06545846  0.94670970  0.57152050    -0.64700
N1166       N  0.06940703  0.97953610  0.02761587    -0.07200
N1167       N  0.09560396  0.96068479  0.03033155    -0.64300
N1168       N  0.04806158  0.54694665  0.56534750    -0.06100
N1169       N  0.05826793  0.56633920  0.59155960    -0.65000
Mn1170     Mn  0.06160648  0.51794516  0.99360399     1.10700
C1171       C  0.08273718  0.58603131  0.58071955     0.98000
C1172       C  0.09259919  0.93824699  0.55624755     0.98100
N1173       N  0.45449898  0.95158282  0.53729347    -0.07200
N1174       N  0.43830544  0.92340624  0.54172417    -0.62600
N1175       N  0.46946278  0.52954812  0.56793112    -0.06500
N1176       N  0.46317272  0.54124379  0.59770824    -0.59300
N1177       N  0.44241503  0.52407712  0.54956944    -0.07800
N1178       N  0.41743186  0.53123764  0.56769809    -0.62200
N1179       N  0.48012649  0.95426690  0.55822525    -0.06800
N1180       N  0.98097737  0.93108056  0.58039911    -0.59300
Mn1181     Mn  0.43989195  0.99119321  0.50364284     1.20200
Mn1182     Mn  0.01188602  0.00241193  0.56188856     1.10100
Cl1183     Cl  0.50254097  0.50225759  0.99895593    -0.87300
C1184       C  0.45596759  0.90821446  0.56600939     0.95000
C1185       C  0.43080955  0.54200185  0.59760394     0.94800
N1186       N  0.29351524  0.69200867  0.99272778    -0.07500
N1187       N  0.29968355  0.66445000  0.97523940    -0.59600
N1188       N  0.31261894  0.74006546  0.55320942    -0.07100
N1189       N  0.33830177  0.73909634  0.57385213    -0.61700
N1190       N  0.29195589  0.71590711  0.56051677    -0.06700
N1191       N  0.30346605  0.69865091  0.58594559    -0.59600
N1192       N  0.31373676  0.71656205  0.98561296    -0.06400
N1193       N  0.33410141  0.70562879  0.96352475    -0.62100
C1194       C  0.32475096  0.67315364  0.95701857     0.94700
C1195       C  0.33218765  0.71331258  0.59397957     0.94500
N1196       N  0.28085672  0.83370741  0.51593856    -0.07700
N1197       N  0.27828590  0.86351667  0.53075417    -0.60200
N1198       N  0.31539398  0.79570613  0.96025532    -0.05800
N1199       N  0.34132983  0.80484003  0.94363465    -0.61400
N1200       N  0.28989057  0.81278668  0.94933904    -0.07700
N1201       N  0.29828074  0.83351256  0.92526480    -0.60400
N1202       N  0.30556747  0.81680556  0.52856380    -0.05400
N1203       N  0.32045757  0.83493916  0.55309272    -0.61500
Mn1204     Mn  0.31377739  0.76608161  0.50496263     1.18400
C1205       C  0.30318099  0.86432526  0.55361232     0.96800
C1206       C  0.33064052  0.82827111  0.92089840     0.97500
N1207       N  0.21373190  0.69472254  0.55896097    -0.07700
N1208       N  0.20427598  0.67360547  0.58241133    -0.64000
N1209       N  0.19618465  0.69325016  0.97679568    -0.06500
N1210       N  0.18157089  0.67674689  0.95106330    -0.64700
N1211       N  0.22031564  0.67532631  0.98916394    -0.07200
N1212       N  0.22266478  0.64627084  0.97290664    -0.64300
N1213       N  0.18867582  0.71236804  0.54786657    -0.06100
N1214       N  0.16229209  0.70352649  0.56365096    -0.65000
Mn1215     Mn  0.25709606  0.69307686  0.52471097     1.10700
C1216       C  0.17194857  0.67992470  0.58646379     0.98000
C1217       C  0.19821173  0.64707820  0.94956212     0.98100
N1218       N  0.21180122  0.79374608  0.94598256    -0.07200
N1219       N  0.20013371  0.81286330  0.92194218    -0.62600
N1220       N  0.18964555  0.78965525  0.52136215    -0.06500
N1221       N  0.16996681  0.79986263  0.54428991    -0.59300
N1222       N  0.20883341  0.81473780  0.51351605    -0.07800
N1223       N  0.20244514  0.84212695  0.53117366    -0.62200
N1224       N  0.19050598  0.77004010  0.95284716    -0.06800
N1225       N  0.16429701  0.77313842  0.93320930    -0.59300
Mn1226     Mn  0.24656536  0.81469844  0.98284167     1.20200
Mn1227     Mn  0.18885476  0.74341434  0.00094752     1.10100
Cl1228     Cl  0.25284925  0.75243653  0.50155473    -0.87300
C1229       C  0.17054801  0.79997189  0.91446556     0.95000
C1230       C  0.17856247  0.83256661  0.55052524     0.94800
N1231       N  0.46578859  0.69478938  0.78421748    -0.07500
N1232       N  0.45386675  0.66920110  0.80045080    -0.59600
N1233       N  0.44367057  0.72000298  0.71208103    -0.07100
N1234       N  0.41923083  0.71253076  0.69115967    -0.61700
N1235       N  0.46647257  0.69684863  0.70953433    -0.06700
N1236       N  0.45798108  0.67329212  0.68693534    -0.59600
N1237       N  0.44629023  0.72097372  0.78713147    -0.06400
N1238       N  0.42226795  0.71416576  0.80580161    -0.62100
C1239       C  0.42657479  0.68173274  0.81382141     0.94700
C1240       C  0.42841275  0.68351283  0.67614638     0.94500
N1241       N  0.96241452  0.82350791  0.72155328    -0.07700
N1242       N  0.95922972  0.84479909  0.69714488    -0.60200
N1243       N  0.43691739  0.79957778  0.79250058    -0.05800
N1244       N  0.41240957  0.80472302  0.81237122    -0.61400
N1245       N  0.45785248  0.82465659  0.79580467    -0.07700
N1246       N  0.44714115  0.84778458  0.81781419    -0.60400
N1247       N  0.44087575  0.79945010  0.71457335    -0.05400
N1248       N  0.42499016  0.80055757  0.68525518    -0.61500
Mn1249     Mn  0.44170173  0.75990951  0.75152654     1.18400
C1250       C  0.43823595  0.82774727  0.67129651     0.96800
C1251       C  0.41852509  0.83497970  0.82861284     0.97500
N1252       N  0.04730575  0.69098854  0.70861319    -0.07700
N1253       N  0.05558020  0.66734709  0.68624404    -0.64000
N1254       N  0.06660358  0.71516573  0.79009179    -0.06500
N1255       N  0.08144450  0.71378880  0.82000403    -0.64700
N1256       N  0.54238057  0.69215906  0.78633254    -0.07200
N1257       N  0.54275976  0.67291373  0.81239982    -0.64300
N1258       N  0.07015008  0.71422408  0.71186566    -0.06100
N1259       N  0.09436229  0.70640593  0.69190428    -0.65000
Mn1260     Mn  0.50498400  0.69312934  0.74688132     1.10700
C1261       C  0.08518898  0.67680394  0.67539554     0.98000
C1262       C  0.06815603  0.68591655  0.83293751     0.98100
N1263       N  0.04024162  0.81807910  0.79601228    -0.07200
N1264       N  0.04824910  0.84137731  0.81900158    -0.62600
N1265       N  0.05925781  0.79453952  0.71758610    -0.06500
N1266       N  0.08279303  0.80210817  0.69850926    -0.59300
N1267       N  0.03941825  0.82046759  0.72127526    -0.07800
N1268       N  0.05069285  0.84645622  0.70514025    -0.62200
N1269       N  0.06366649  0.79563898  0.79277671    -0.06800
N1270       N  0.08809993  0.80362741  0.81365006    -0.59300
Mn1271     Mn  0.00081383  0.82202269  0.75971002     1.20200
Mn1272     Mn  0.06558663  0.75511511  0.75311844     1.10100
Cl1273     Cl  0.00442788  0.75673540  0.75342381    -0.87300
C1274       C  0.07823727  0.83212669  0.82925394     0.95000
C1275       C  0.07802104  0.83468388  0.69128850     0.94800
N1276       N  0.29024595  0.93881053  0.80048679    -0.07500
N1277       N  0.29939049  0.91185243  0.81797312    -0.59600
N1278       N  0.26973352  0.51738313  0.83362211    -0.07100
N1279       N  0.26566315  0.54420423  0.85303288    -0.61700
N1280       N  0.24427923  0.49741792  0.83330571    -0.06700
N1281       N  0.22220218  0.51065654  0.85257800    -0.59600
N1282       N  0.31479253  0.96011430  0.79982416    -0.06400
N1283       N  0.34072038  0.94765993  0.81680521    -0.62100
C1284       C  0.33125825  0.91688386  0.82782093     0.94700
C1285       C  0.23617236  0.53975572  0.86502343     0.94500
N1286       N  0.27903851  0.58561091  0.75794431    -0.07700
N1287       N  0.28951184  0.61740986  0.75988178    -0.60200
N1288       N  0.33025939  0.01902228  0.74443590    -0.05800
N1289       N  0.36094621  0.01170790  0.73922123    -0.61400
N1290       N  0.31673596  0.03364379  0.71798153    -0.07700
N1291       N  0.33732405  0.03612744  0.69460320    -0.60400
N1292       N  0.28817428  0.57049649  0.78584818    -0.05400
N1293       N  0.30151301  0.59225411  0.80748486    -0.61500
Mn1294     Mn  0.30104857  0.51696683  0.79179900     1.18400
C1295       C  0.30339098  0.62122832  0.79119461     0.96800
C1296       C  0.36442800  0.02251380  0.70783447     0.97500
N1297       N  0.18768491  0.47874759  0.78264753    -0.07700
N1298       N  0.16574164  0.47557218  0.80458601    -0.64000
N1299       N  0.21742902  0.94134324  0.71660414    -0.06500
N1300       N  0.20406789  0.91902205  0.69548064    -0.64700
N1301       N  0.22734648  0.92674657  0.74448903    -0.07200
N1302       N  0.21811626  0.89459135  0.74299866    -0.64300
N1303       N  0.17516837  0.49288520  0.75552874    -0.06100
N1304       N  0.14412055  0.49970419  0.75882859    -0.65000
Mn1305     Mn  0.23850500  0.95827128  0.79001021     1.10700
C1306       C  0.13898367  0.48841670  0.78961191     0.98000
C1307       C  0.20350739  0.89008566  0.71211064     0.98100
N1308       N  0.25973990  0.01660748  0.66864674    -0.07200
N1309       N  0.28140289  0.00435492  0.64828843    -0.62600
N1310       N  0.19154743  0.55113916  0.70184630    -0.06500
N1311       N  0.16477085  0.56207402  0.68578610    -0.59300
N1312       N  0.21482645  0.57390090  0.70079350    -0.07800
N1313       N  0.20358204  0.60068166  0.68361747    -0.62200
N1314       N  0.23505530  0.99567660  0.66905922    -0.06800
N1315       N  0.23917155  0.96928212  0.64911877    -0.59300
Mn1316     Mn  0.26719971  0.55449728  0.71203489     1.20200
Mn1317     Mn  0.20455634  0.99492587  0.71125275     1.10100
Cl1318     Cl  0.25235794  0.50719337  0.75170083    -0.87300
C1319       C  0.26789192  0.97496440  0.63593608     0.95000
C1320       C  0.17165203  0.59350756  0.67477725     0.94800
C1321       C  0.36181489  0.61998973  0.78989982    -0.27700
C1322       C  0.33427357  0.63898021  0.79752688    -0.15700
C1323       C  0.33790806  0.66826044  0.81808129     0.34900
C1324       C  0.36928266  0.67926123  0.82806735    -0.27100
C1325       C  0.39697729  0.66167417  0.81785748    -0.16400
C1326       C  0.39295818  0.63032771  0.80087058     0.36000
N1327       N  0.42049239  0.60980400  0.79357630    -0.90600
H1328       H  0.35880302  0.59615538  0.77604866     0.17100
H1329       H  0.37211183  0.70319694  0.84172850     0.17100
N1330       N  0.31070059  0.68754615  0.82877205    -0.89600
H1331       H  0.41310560  0.58724363  0.78120621     0.34500
H1332       H  0.43157652  0.60284472  0.81628487     0.39600
H1333       H  0.28880196  0.67708385  0.81912453     0.39200
H1334       H  0.31230379  0.71163305  0.81884630     0.34100
C1335       C  0.13314556  0.84157407  0.67145782    -0.27700
C1336       C  0.10772519  0.85499830  0.68980551    -0.15700
C1337       C  0.11509229  0.87881535  0.71568883     0.34900
C1338       C  0.14730980  0.88608638  0.72498725    -0.27100
C1339       C  0.17271796  0.87198496  0.70751964    -0.16400
C1340       C  0.16562074  0.85070351  0.67953940     0.36000
N1341       N  0.19128544  0.83891070  0.65948394    -0.90600
H1342       H  0.12770688  0.82279148  0.65184252     0.17100
H1343       H  0.15245363  0.90463442  0.74493450     0.17100
N1344       N  0.08997979  0.89491628  0.73348869    -0.89600
H1345       H  0.18188809  0.82355873  0.63951565     0.34500
H1346       H  0.20637664  0.82369143  0.67416109     0.39600
H1347       H  0.09335949  0.88923264  0.75868463     0.39200
H1348       H  0.09240945  0.92109237  0.73122278     0.34100
C1349       C  0.28210165  0.91427895  0.62925414    -0.27700
C1350       C  0.28503358  0.94760977  0.61807277    -0.15700
C1351       C  0.30100114  0.95306109  0.58852839     0.34900
C1352       C  0.31052323  0.92509314  0.56911378    -0.27100
C1353       C  0.30551001  0.89170286  0.57925665    -0.16400
C1354       C  0.29257367  0.88633383  0.61035060     0.36000
N1355       N  0.28747166  0.85238267  0.62115096    -0.90600
H1356       H  0.27028888  0.90991018  0.65221090     0.17100
H1357       H  0.31991318  0.92939351  0.54490622     0.17100
N1358       N  0.30584891  0.98646683  0.57659441    -0.89600
H1359       H  0.27686868  0.85268797  0.64419761     0.34500
H1360       H  0.31023279  0.84122281  0.62484380     0.39600
H1361       H  0.32005640  0.00008375  0.59457923     0.39200
H1362       H  0.28332928  0.99832625  0.57375235     0.34100
C1363       C  0.18694129  0.58905373  0.92729422    -0.27700
C1364       C  0.19716148  0.62230165  0.92166045    -0.15700
C1365       C  0.21630017  0.62855693  0.89457365     0.34900
C1366       C  0.22737052  0.60113957  0.87548088    -0.27100
C1367       C  0.21937799  0.56751634  0.88267923    -0.16400
C1368       C  0.19756889  0.56150489  0.90771121     0.36000
N1369       N  0.18794586  0.52748078  0.91451480    -0.90600
H1370       H  0.17272724  0.58431751  0.94860435     0.17100
H1371       H  0.24345432  0.60601118  0.85568582     0.17100
N1372       N  0.22676876  0.66253168  0.88854072    -0.89600
H1373       H  0.17158711  0.52750412  0.93355457     0.34500
H1374       H  0.20850594  0.51459508  0.92339278     0.39600
H1375       H  0.20624194  0.67655068  0.88183452     0.39200
H1376       H  0.24168473  0.66281279  0.86821709     0.34100
C1377       C  0.08883531  0.83383232  0.88748320    -0.27700
C1378       C  0.09673146  0.84713056  0.85717274    -0.15700
C1379       C  0.12911907  0.85530835  0.85174379     0.34900
C1380       C  0.15350876  0.84119869  0.87203181    -0.27100
C1381       C  0.14527480  0.81982891  0.89762048    -0.16400
C1382       C  0.11298759  0.81875481  0.90739447     0.36000
N1383       N  0.10442444  0.80120765  0.93644831    -0.90600
H1384       H  0.06369684  0.82914136  0.89247006     0.17100
H1385       H  0.17856916  0.84457651  0.86607930     0.17100
N1386       N  0.13762044  0.87427237  0.82352950    -0.89600
H1387       H  0.08769161  0.78221419  0.92909759     0.34500
H1388       H  0.09306772  0.81841122  0.95218194     0.39600
H1389       H  0.12597738  0.89771420  0.82479849     0.39200
H1390       H  0.12899151  0.86150765  0.80179106     0.34100
C1391       C  0.38902276  0.69559379  0.59994364    -0.27700
C1392       C  0.35775798  0.69514658  0.61195831    -0.15700
C1393       C  0.35121460  0.67552274  0.63950798     0.34900
C1394       C  0.37705329  0.66102699  0.65763467    -0.27100
C1395       C  0.40881366  0.66807032  0.64935203    -0.16400
C1396       C  0.41462499  0.68104268  0.61822707     0.36000
N1397       N  0.44713468  0.68435263  0.60796719    -0.90600
H1398       H  0.39388373  0.70847840  0.57724063     0.17100
H1399       H  0.37264115  0.65006567  0.68144035     0.17100
N1400       N  0.31897172  0.67264912  0.65063306    -0.89600
H1401       H  0.45211496  0.71010080  0.60536427     0.34500
H1402       H  0.44835216  0.67240998  0.58457604     0.39600
H1403       H  0.31884517  0.68239277  0.67501372     0.39200
H1404       H  0.31304235  0.64688809  0.65101761     0.34100
C1405       C  0.39587777  0.62501786  0.92643578    -0.27700
C1406       C  0.38374882  0.59221746  0.92971754    -0.15700
C1407       C  0.35030859  0.58679408  0.93163404     0.34900
C1408       C  0.33011414  0.61477183  0.93540492    -0.27100
C1409       C  0.34326410  0.64761219  0.93876104    -0.16400
C1410       C  0.37584481  0.65301976  0.93143256     0.36000
N1411       N  0.38939823  0.68645245  0.93198590    -0.90600
H1412       H  0.42161786  0.62903427  0.92415872     0.17100
H1413       H  0.30468993  0.61057211  0.93935492     0.17100
N1414       N  0.33756772  0.55290557  0.93258194    -0.89600
H1415       H  0.39910913  0.69035663  0.90889340     0.34500
H1416       H  0.40839697  0.68761309  0.95017964     0.39600
H1417       H  0.34157356  0.54098113  0.90968456     0.39200
H1418       H  0.31247290  0.55334367  0.93481919     0.34100
C1419       C  0.14624587  0.91693354  0.57416115    -0.27700
C1420       C  0.11348489  0.91037866  0.56622107    -0.15700
C1421       C  0.10184448  0.87691480  0.56340338     0.34900
C1422       C  0.12413837  0.85040621  0.56385666    -0.27100
C1423       C  0.15749604  0.85729057  0.56621892    -0.16400
C1424       C  0.16849400  0.89051119  0.57475257     0.36000
N1425       N  0.20186168  0.89827614  0.58328272    -0.90600
H1426       H  0.15478003  0.94281035  0.57788294     0.17100
H1427       H  0.11548901  0.82484076  0.55837974     0.17100
N1428       N  0.06613950  0.87673168  0.06722529    -0.89600
H1429       H  0.21582714  0.89417467  0.56270080     0.34500
H1430       H  0.20998542  0.88239808  0.60233136     0.39600
H1431       H  0.06027884  0.86234896  0.08750711     0.39200
H1432       H  0.06097980  0.86220164  0.04546082     0.34100
C1433       C  0.10411455  0.50430143  0.86750678    -0.27700
C1434       C  0.08178835  0.97706190  0.86879502    -0.15700
C1435       C  0.07567811  0.95774770  0.83922180     0.34900
C1436       C  0.09167890  0.96636440  0.81062282    -0.27100
C1437       C  0.11084121  0.49408175  0.80886544    -0.16400
C1438       C  0.11642190  0.51454656  0.83783126     0.36000
N1439       N  0.13794418  0.54331781  0.83867179    -0.90600
H1440       H  0.10980524  0.51931580  0.88998249     0.17100
H1441       H  0.09012285  0.94949812  0.78894683     0.17100
N1442       N  0.05438636  0.92888733  0.83877015    -0.89600
H1443       H  0.12486053  0.56446865  0.84661980     0.34500
H1444       H  0.14488456  0.54872498  0.81483448     0.39600
H1445       H  0.06463136  0.91129076  0.85503015     0.39200
H1446       H  0.05289993  0.91719434  0.81505079     0.34100
C1447       C  0.42128465  0.55857389  0.65588665    -0.27700
C1448       C  0.41581588  0.53569859  0.62900209    -0.15700
C1449       C  0.40442528  0.00549691  0.63196905     0.34900
C1450       C  0.39307436  0.99757323  0.66296199    -0.27100
C1451       C  0.39315954  0.02208073  0.68864114    -0.16400
C1452       C  0.40969209  0.55145034  0.68708789     0.36000
N1453       N  0.41306366  0.57604688  0.71379757    -0.90600
H1454       H  0.43383992  0.58228183  0.65244748     0.17100
H1455       H  0.38124201  0.97334760  0.66587467     0.17100
N1456       N  0.40489634  0.97979107  0.60622359    -0.89600
H1457       H  0.40224501  0.59853159  0.70591052     0.34500
H1458       H  0.43780417  0.58079937  0.71859858     0.39600
H1459       H  0.38133047  0.97038860  0.60180554     0.39200
H1460       H  0.41955143  0.96008997  0.61496923     0.34100
C1461       C  0.45817173  0.82973613  0.61557735    -0.27700
C1462       C  0.43307157  0.83712880  0.63665465    -0.15700
C1463       C  0.41034560  0.86231424  0.62826415     0.34900
C1464       C  0.41584300  0.88294992  0.60120600    -0.27100
C1465       C  0.44432594  0.87927801  0.58398763    -0.16400
C1466       C  0.46427597  0.85114906  0.58947853     0.36000
N1467       N  0.49197429  0.84573194  0.57015554    -0.90600
H1468       H  0.47545556  0.81001480  0.62191928     0.17100
H1469       H  0.39993763  0.90414824  0.59606320     0.17100
N1470       N  0.88038511  0.87429095  0.65487392    -0.89600
H1471       H  0.48958038  0.82174980  0.55847738     0.34500
H1472       H  0.51220035  0.84511892  0.58657833     0.39600
H1473       H  0.86517358  0.85302723  0.65264558     0.39200
H1474       H  0.86693486  0.89467305  0.64562126     0.34100
C1475       C  0.08371957  0.63199779  0.90471244    -0.27700
C1476       C  0.05178649  0.63089989  0.91510926    -0.15700
C1477       C  0.53455608  0.65348738  0.90769954     0.34900
C1478       C  0.54160968  0.67807831  0.88468768    -0.27100
C1479       C  0.06891855  0.67758282  0.86804637    -0.16400
C1480       C  0.09240027  0.65500671  0.88063118     0.36000
N1481       N  0.12351261  0.65314203  0.86634034    -0.90600
H1482       H  0.10085794  0.61276590  0.91277467     0.14300
H1483       H  0.52303123  0.69606625  0.87713258     0.17100
N1484       N  0.50404195  0.65357523  0.92329381    -0.89600
H1485       H  0.13760440  0.63414528  0.87757125     0.34500
H1486       H  0.13546886  0.67604131  0.87195954     0.39600
H1487       H  0.50892226  0.65689805  0.94886563     0.39200
H1488       H  0.49006152  0.67436348  0.91566086     0.34100
C1489       C  0.85337606  0.35176704  0.39933726     0.85100
C1490       C  0.83374350  0.37503002  0.37522065    -0.55100
C1491       C  0.85104504  0.39603797  0.35555392     0.08100
C1492       C  0.88919916  0.39123987  0.36275035     0.19000
C1493       C  0.87646349  0.33235185  0.37584587    -0.55800
C1494       C  0.89600374  0.35194097  0.35650646     0.08200
C1495       C  0.87626188  0.37654514  0.41948437    -0.55400
C1496       C  0.89539884  0.39746858  0.40168458     0.08700
H1497       H  0.80745307  0.37484820  0.37397690     0.13300
H1498       H  0.90403773  0.40788544  0.34767998    -0.01000
H1499       H  0.87734836  0.30487199  0.37491300     0.13600
H1500       H  0.87703723  0.37737725  0.44651480     0.13300
C1501       C  0.60300699  0.11036942  0.10586734     0.85100
C1502       C  0.62454167  0.13500271  0.08696506    -0.55100
C1503       C  0.64487258  0.15646603  0.10591651     0.08100
C1504       C  0.64040699  0.15078068  0.14505121     0.19000
C1505       C  0.62719397  0.09171371  0.12965358    -0.55800
C1506       C  0.64740309  0.11152068  0.15060345     0.08200
C1507       C  0.58424272  0.13354190  0.12955099    -0.55400
C1508       C  0.60225266  0.15474423  0.15110835     0.08700
H1509       H  0.62409899  0.13489940  0.05995731     0.13300
H1510       H  0.65595950  0.16757462  0.16165758    -0.01000
H1511       H  0.62788577  0.06422670  0.12997515     0.13600
H1512       H  0.55803626  0.13205569  0.13004257     0.13300
N1513       N  0.55864387  0.48168512  0.45022314    -0.07500
N1514       N  0.58389842  0.47628997  0.43201840    -0.59600
N1515       N  0.01635935  0.05397298  0.44041955    -0.07100
N1516       N  0.01330590  0.08081094  0.42159103    -0.61700
N1517       N  0.54596099  0.05513128  0.46416372    -0.06700
N1518       N  0.56091506  0.08427986  0.46159595    -0.59600
N1519       N  0.53180433  0.47572146  0.43154283    -0.06400
N1520       N  0.53874653  0.46558928  0.40137897    -0.62100
C1521       C  0.57116486  0.46632912  0.40164136     0.94700
C1522       C  0.54281413  0.09996336  0.43806764     0.94500
N1523       N  0.92435764  0.03301731  0.47108413    -0.07700
N1524       N  0.89703431  0.05362373  0.96860220    -0.60200
N1525       N  0.95437435  0.46133076  0.43458124    -0.05800
N1526       N  0.94275449  0.44212368  0.40864133    -0.61400
N1527       N  0.93769903  0.45540112  0.46085163    -0.07700
N1528       N  0.91512858  0.43201070  0.45339221    -0.60400
N1529       N  0.94267680  0.03823529  0.44600090    -0.05400
N1530       N  0.92970937  0.06060445  0.42568825    -0.61500
Mn1531     Mn  0.98468625  0.00768858  0.43775846     1.18400
C1532       C  0.90165705  0.06823350  0.43952424     0.96800
C1533       C  0.91821241  0.42334923  0.42072937     0.97500
N1534       N  0.56282808  0.05402099  0.04130358    -0.07700
N1535       N  0.58554635  0.07708309  0.05036505    -0.64000
N1536       N  0.55648915  0.47025400  0.05499436    -0.06500
N1537       N  0.56887440  0.44841068  0.07617440    -0.64700
N1538       N  0.57379925  0.47617506  0.52966303    -0.07200
N1539       N  0.60048897  0.45812990  0.53280279    -0.64300
N1540       N  0.54460884  0.04818349  0.06642016    -0.06100
N1541       N  0.55509046  0.06696145  0.09300128    -0.65000
Mn1542     Mn  0.56145370  0.01561839  0.49670075     1.10700
C1543       C  0.58054934  0.08570893  0.08280927     0.98000
C1544       C  0.59717633  0.44013203  0.06322110     0.98100
N1545       N  0.95726820  0.44977018  0.03862803    -0.07200
N1546       N  0.94033154  0.42271599  0.04553629    -0.62600
N1547       N  0.96619449  0.03452642  0.06673091    -0.06500
N1548       N  0.96022049  0.04697386  0.09631544    -0.59300
N1549       N  0.93898563  0.02884384  0.04875621    -0.07800
N1550       N  0.91420730  0.03671539  0.06686425    -0.62200
N1551       N  0.98322154  0.45313744  0.05901950    -0.06800
N1552       N  0.48406081  0.42867568  0.07992300    -0.59300
Mn1553     Mn  0.94146433  0.48937454  0.00499035     1.20200
Mn1554     Mn  0.51423015  0.50070274  0.06145301     1.10100
Cl1555     Cl  0.99805834  0.00519682  0.49995185    -0.87300
C1556       C  0.95779782  0.40877496  0.07077403     0.95000
C1557       C  0.92785265  0.04795121  0.09647147     0.94800
N1558       N  0.79415160  0.19352880  0.49307725    -0.07500
N1559       N  0.79921380  0.16697450  0.47362645    -0.59600
N1560       N  0.80871078  0.24031373  0.05649042    -0.07100
N1561       N  0.83391987  0.23898744  0.07759079    -0.61700
N1562       N  0.78791332  0.21596065  0.06281578    -0.06700
N1563       N  0.79907588  0.19789222  0.08787915    -0.59600
N1564       N  0.81432149  0.21824995  0.48638923    -0.06400
N1565       N  0.83337385  0.20861515  0.46266494    -0.62100
C1566       C  0.82346853  0.17669622  0.45470176     0.94700
C1567       C  0.82765883  0.21250631  0.09672454     0.94500
N1568       N  0.78088284  0.33524432  0.02309120    -0.07700
N1569       N  0.77952340  0.36451316  0.03919701    -0.60200
N1570       N  0.81678340  0.29690883  0.46227718    -0.05800
N1571       N  0.84233226  0.30572139  0.44497290    -0.61400
N1572       N  0.79131543  0.31456451  0.45226671    -0.07700
N1573       N  0.79933066  0.33541963  0.42817537    -0.60400
N1574       N  0.80523934  0.31712793  0.03453686    -0.05400
N1575       N  0.82118493  0.33371001  0.05942905    -0.61500
Mn1576     Mn  0.81142988  0.26736514  0.00908495     1.18400
C1577       C  0.80487731  0.36355491  0.06150692     0.96800
C1578       C  0.83138627  0.32957792  0.42280834     0.97500
N1579       N  0.70989205  0.19620889  0.06007496    -0.07700
N1580       N  0.70080592  0.17471861  0.08333963    -0.64000
N1581       N  0.69738158  0.19567458  0.47847234    -0.06500
N1582       N  0.68259783  0.17944983  0.45262077    -0.64700
N1583       N  0.72144596  0.17743731  0.49046927    -0.07200
N1584       N  0.72365621  0.14854181  0.47404750    -0.64300
N1585       N  0.68475718  0.21394833  0.04932610    -0.06100
N1586       N  0.65853912  0.20462521  0.06527593    -0.65000
Mn1587     Mn  0.75300410  0.19512158  0.02602111     1.10700
C1588       C  0.66854037  0.18068859  0.08777071     0.98000
C1589       C  0.69924950  0.14973569  0.45080478     0.98100
N1590       N  0.71339372  0.29732667  0.45102577    -0.07200
N1591       N  0.70185981  0.31688910  0.42729179    -0.62600
N1592       N  0.68780355  0.29322263  0.02620461    -0.06500
N1593       N  0.66879602  0.30268345  0.05005762    -0.59300
N1594       N  0.70797729  0.31806510  0.01976829    -0.07800
N1595       N  0.70292288  0.34446338  0.03934613    -0.62200
N1596       N  0.69205896  0.27356816  0.45753441    -0.06800
N1597       N  0.66584792  0.27703706  0.43802938    -0.59300
Mn1598     Mn  0.74929166  0.31674929  0.48720970     1.20200
Mn1599     Mn  0.69076439  0.24535181  0.50450306     1.10100
Cl1600     Cl  0.75003600  0.25541305  0.00486327    -0.87300
C1601       C  0.67233688  0.30404341  0.41964713     0.95000
C1602       C  0.67890298  0.33452746  0.05838714     0.94800
N1603       N  0.96622765  0.19245393  0.28500404    -0.07500
N1604       N  0.95417846  0.16612371  0.30009706    -0.59600
N1605       N  0.94337074  0.22093373  0.21395966    -0.07100
N1606       N  0.91937855  0.21558648  0.19192200    -0.61700
N1607       N  0.96573598  0.19746649  0.21038873    -0.06700
N1608       N  0.95725692  0.17560863  0.18618559    -0.59600
N1609       N  0.94718094  0.21876897  0.28951695    -0.06400
N1610       N  0.92339904  0.21121840  0.30828691    -0.62100
C1611       C  0.92734590  0.17829952  0.31461886     0.94700
C1612       C  0.92840794  0.18755258  0.17510933     0.94500
N1613       N  0.46476476  0.32145949  0.22213264    -0.07700
N1614       N  0.46360584  0.34169118  0.19674231    -0.60200
N1615       N  0.93864061  0.29834930  0.29694364    -0.05800
N1616       N  0.91400310  0.30408384  0.31649752    -0.61400
N1617       N  0.95939176  0.32371527  0.29944497    -0.07700
N1618       N  0.94831531  0.34755545  0.32054251    -0.60400
N1619       N  0.93957312  0.30013429  0.21934308    -0.05400
N1620       N  0.92165799  0.30318607  0.19140076    -0.61500
Mn1621     Mn  0.94197125  0.25925543  0.25504703     1.18400
C1622       C  0.93338777  0.33181019  0.17850703     0.96800
C1623       C  0.91975204  0.33493837  0.33167690     0.97500
N1624       N  0.54620599  0.18849669  0.21215875    -0.07700
N1625       N  0.55421426  0.16537093  0.18922424    -0.64000
N1626       N  0.56453518  0.21108829  0.29368572    -0.06500
N1627       N  0.58013719  0.20902799  0.32310634    -0.64700
N1628       N  0.04273945  0.19045827  0.28564753    -0.07200
N1629       N  0.04172924  0.17249634  0.31246020    -0.64300
N1630       N  0.56934982  0.21142197  0.21600293    -0.06100
N1631       N  0.59349357  0.20385455  0.19592962    -0.65000
Mn1632     Mn  0.00471620  0.19206228  0.24689950     1.10700
C1633       C  0.58392988  0.17482148  0.17870723     0.98000
C1634       C  0.56640390  0.18170568  0.33636345     0.98100
N1635       N  0.53914493  0.31419073  0.30047320    -0.07200
N1636       N  0.54689983  0.33691921  0.32412069    -0.62600
N1637       N  0.56167952  0.29243900  0.22317577    -0.06500
N1638       N  0.58590156  0.30050307  0.20507741    -0.59300
N1639       N  0.54124640  0.31797038  0.22573892    -0.07800
N1640       N  0.55224766  0.34395950  0.20948485    -0.62200
N1641       N  0.56174889  0.29065742  0.29843118    -0.06800
N1642       N  0.58508839  0.29696070  0.32106624    -0.59300
Mn1643     Mn  0.50144841  0.31959178  0.26219191     1.20200
Mn1644     Mn  0.56502414  0.25159196  0.25773316     1.10100
Cl1645     Cl  0.50378627  0.25423838  0.25574820    -0.87300
C1646       C  0.57549502  0.32561093  0.33654386     0.95000
C1647       C  0.58020831  0.33272881  0.19674071     0.94800
N1648       N  0.79125221  0.44252404  0.30363580    -0.07500
N1649       N  0.80027312  0.41520219  0.32067810    -0.59600
N1650       N  0.77086142  0.02000538  0.33578704    -0.07100
N1651       N  0.76668126  0.04697644  0.35503733    -0.61700
N1652       N  0.74583855  0.99953880  0.33633216    -0.06700
N1653       N  0.72411320  0.01236615  0.35621252    -0.59600
N1654       N  0.81583743  0.46383175  0.30332662    -0.06400
N1655       N  0.84172426  0.45091651  0.32016658    -0.62100
C1656       C  0.83217668  0.41983340  0.33064598     0.94700
C1657       C  0.73771293  0.04184029  0.36799285     0.94500
N1658       N  0.77833209  0.08724787  0.25904566    -0.07700
N1659       N  0.78806198  0.11929815  0.26068177    -0.60200
N1660       N  0.83108313  0.52248371  0.24680689    -0.05800
N1661       N  0.86181609  0.51524113  0.24183216    -0.61400
N1662       N  0.81765164  0.53695780  0.22021446    -0.07700
N1663       N  0.83839107  0.53947942  0.19700570    -0.60400
N1664       N  0.78787529  0.07259005  0.28706043    -0.05400
N1665       N  0.80057500  0.09488725  0.30855425    -0.61500
Mn1666     Mn  0.80149815  0.01917123  0.29335040     1.18400
C1667       C  0.80202097  0.12371373  0.29192726     0.96800
C1668       C  0.86544944  0.52604752  0.21048733     0.97500
N1669       N  0.68828679  0.98212204  0.28713160    -0.07700
N1670       N  0.66700344  0.98087158  0.30998093    -0.64000
N1671       N  0.71866380  0.44397097  0.21918507    -0.06500
N1672       N  0.70501296  0.42157784  0.19832491    -0.64700
N1673       N  0.72805742  0.42975340  0.24744256    -0.07200
N1674       N  0.71802709  0.39782410  0.24642617    -0.64300
N1675       N  0.67539809  0.99546576  0.25976587    -0.06100
N1676       N  0.64467706  0.00329858  0.26360488    -0.65000
Mn1677     Mn  0.73961396  0.46215532  0.29255394     1.10700
C1678       C  0.64028547  0.99402859  0.29518717     0.98000
C1679       C  0.70374559  0.39300694  0.21538709     0.98100
N1680       N  0.76170382  0.51847922  0.17076071    -0.07200
N1681       N  0.78449245  0.50541007  0.15224022    -0.62600
N1682       N  0.69071429  0.05194814  0.20447923    -0.06500
N1683       N  0.66382369  0.06253567  0.18836978    -0.59300
N1684       N  0.71391436  0.07466704  0.20280610    -0.07800
N1685       N  0.70256150  0.10105128  0.18513495    -0.62200
N1686       N  0.73713646  0.49737654  0.17108550    -0.06800
N1687       N  0.74248185  0.47008398  0.15279050    -0.59300
Mn1688     Mn  0.76617216  0.05542875  0.21363466     1.20200
Mn1689     Mn  0.70591072  0.49736247  0.21280062     1.10100
Cl1690     Cl  0.75223423  0.00870964  0.25421014    -0.87300
C1691       C  0.77185399  0.47530705  0.14087516     0.95000
C1692       C  0.67061230  0.09369007  0.17662527     0.94800
C1693       C  0.85976616  0.12217991  0.28627506    -0.27700
C1694       C  0.83330958  0.14084663  0.29750406    -0.15700
C1695       C  0.83890002  0.16681126  0.32184594     0.34900
C1696       C  0.87096915  0.17551620  0.33168335    -0.27100
C1697       C  0.89746618  0.15850763  0.31813761    -0.16400
C1698       C  0.89154395  0.12959512  0.29769894     0.36000
N1699       N  0.91778595  0.10840014  0.28792310    -0.90600
H1700       H  0.85534529  0.10028516  0.26980348     0.17100
H1701       H  0.87528519  0.19738807  0.34816276     0.17100
N1702       N  0.81294485  0.18495497  0.33665799    -0.89600
H1703       H  0.90883617  0.08700869  0.27463893     0.34500
H1704       H  0.92913893  0.09921573  0.30967878     0.39600
H1705       H  0.79044417  0.17675083  0.32660739     0.39200
H1706       H  0.81508084  0.21045348  0.33048032     0.34100
C1707       C  0.63434565  0.34191386  0.17526651    -0.27700
C1708       C  0.60872386  0.35446635  0.19374360    -0.15700
C1709       C  0.61517648  0.37987727  0.21831696     0.34900
C1710       C  0.64712246  0.38886656  0.22710469    -0.27100
C1711       C  0.67297483  0.37484193  0.21026915    -0.16400
C1712       C  0.66644884  0.35280078  0.18266986     0.36000
N1713       N  0.69228311  0.34180595  0.16245459    -0.90600
H1714       H  0.62946340  0.32240035  0.15622782     0.17100
H1715       H  0.65168003  0.40826611  0.24637333     0.17100
N1716       N  0.58948672  0.39564495  0.23552366    -0.89600
H1717       H  0.68324447  0.32580477  0.14283109     0.34500
H1718       H  0.70810344  0.32740851  0.17718213     0.39600
H1719       H  0.59324266  0.39130182  0.26092206     0.39200
H1720       H  0.59079038  0.42178278  0.23201320     0.34100
C1721       C  0.78457105  0.41425549  0.13642864    -0.27700
C1722       C  0.78997492  0.44722791  0.12533298    -0.15700
C1723       C  0.80848691  0.45149355  0.09724889     0.34900
C1724       C  0.81770757  0.42282905  0.07866635    -0.27100
C1725       C  0.80903271  0.38999732  0.08783558    -0.16400
C1726       C  0.79370081  0.38560781  0.11783235     0.36000
N1727       N  0.78419808  0.35226257  0.12725051    -0.90600
H1728       H  0.77102052  0.41078798  0.15846398     0.17100
H1729       H  0.82904503  0.42635853  0.05529389     0.17100
N1730       N  0.81580592  0.48444182  0.08549317    -0.89600
H1731       H  0.77192639  0.35341097  0.14930325     0.34500
H1732       H  0.80536949  0.33841754  0.13223699     0.39600
H1733       H  0.82911282  0.49772273  0.10443179     0.39200
H1734       H  0.79406543  0.49726158  0.08061394     0.34100
C1735       C  0.69136550  0.09021258  0.43279679    -0.27700
C1736       C  0.69709541  0.12384715  0.42396129    -0.15700
C1737       C  0.71243517  0.13003512  0.39435304     0.34900
C1738       C  0.72400726  0.10272968  0.37542771    -0.27100
C1739       C  0.72041930  0.06913563  0.38559971    -0.16400
C1740       C  0.70265120  0.06281570  0.41366118     0.36000
N1741       N  0.69821768  0.02883777  0.42423804    -0.90600
H1742       H  0.68051035  0.08523715  0.45615628     0.17100
H1743       H  0.73721038  0.10794048  0.35351555     0.17100
N1744       N  0.71880743  0.16411696  0.38505440    -0.89600
H1745       H  0.67337375  0.02445680  0.42532500     0.34500
H1746       H  0.70875610  0.02695305  0.44833870     0.39600
H1747       H  0.70816447  0.16750525  0.36117847     0.39200
H1748       H  0.74380424  0.16709839  0.38380814     0.34100
C1749       C  0.59050360  0.33632283  0.39394247    -0.27700
C1750       C  0.59637103  0.34335176  0.36098455    -0.15700
C1751       C  0.62830692  0.34934960  0.35179212     0.34900
C1752       C  0.65387627  0.33880699  0.37271406    -0.27100
C1753       C  0.64725765  0.32348831  0.40252594    -0.16400
C1754       C  0.61610987  0.32578515  0.41500077     0.36000
N1755       N  0.61028149  0.31578478  0.44818022    -0.90600
H1756       H  0.56589106  0.33328980  0.40152698     0.17100
H1757       H  0.67834065  0.33946052  0.36425073     0.17100
N1758       N  0.63507165  0.36181664  0.31968657    -0.89600
H1759       H  0.59311880  0.29626105  0.44677519     0.34500
H1760       H  0.60037452  0.33648567  0.46077040     0.39600
H1761       H  0.62448710  0.38556448  0.31731321     0.39200
H1762       H  0.62463384  0.34561156  0.30104664     0.34100
C1763       C  0.88405400  0.19381925  0.09921712    -0.27700
C1764       C  0.85362867  0.19377525  0.11319175    -0.15700
C1765       C  0.84900504  0.17626628  0.14241619     0.34900
C1766       C  0.87615144  0.16463724  0.16052756    -0.27100
C1767       C  0.90715100  0.17171919  0.14990219    -0.16400
C1768       C  0.91115041  0.18213390  0.11739388     0.36000
N1769       N  0.94306335  0.18580712  0.10533378    -0.90600
H1770       H  0.88704506  0.20503759  0.07524189     0.17100
H1771       H  0.87321329  0.15637420  0.18567262     0.17100
N1772       N  0.81748897  0.17324584  0.15529124    -0.89600
H1773       H  0.94177280  0.19509368  0.08120761     0.34500
H1774       H  0.95307272  0.16154466  0.10367756     0.39600
H1775       H  0.81801390  0.18502151  0.17886974     0.39200
H1776       H  0.81272760  0.14747099  0.15815779     0.34100
C1777       C  0.89468952  0.12814787  0.42798148    -0.27700
C1778       C  0.88089684  0.09582712  0.42848588    -0.15700
C1779       C  0.84716352  0.09165057  0.42529933     0.34900
C1780       C  0.82759480  0.12033093  0.42801528    -0.27100
C1781       C  0.84175565  0.15227715  0.43504497    -0.16400
C1782       C  0.87529206  0.15670140  0.43171467     0.36000
N1783       N  0.89023112  0.18940967  0.43595739    -0.90600
H1784       H  0.92080786  0.13117060  0.42911674     0.17100
H1785       H  0.80158080  0.11718044  0.42874280     0.17100
N1786       N  0.83317826  0.05829830  0.42183762    -0.89600
H1787       H  0.90301717  0.19404959  0.41477567     0.34500
H1788       H  0.90692685  0.18868440  0.45637003     0.39600
H1789       H  0.84008028  0.04785008  0.39914390     0.39200
H1790       H  0.80789498  0.05972438  0.42020840     0.34100
C1791       C  0.65099749  0.41914120  0.08202423    -0.27700
C1792       C  0.61787070  0.41313250  0.07603217    -0.15700
C1793       C  0.60537388  0.38008338  0.07764183     0.34900
C1794       C  0.62688393  0.35286124  0.07859813    -0.27100
C1795       C  0.66020057  0.35882831  0.07766066    -0.16400
C1796       C  0.67241296  0.39194837  0.08421448     0.36000
N1797       N  0.70631659  0.39872861  0.09093178    -0.90600
H1798       H  0.66034892  0.44484478  0.08310903     0.17100
H1799       H  0.61742495  0.32729971  0.07537677     0.17100
N1800       N  0.57241743  0.37429260  0.57232385    -0.89600
H1801       H  0.71513345  0.41065921  0.07029392     0.34500
H1802       H  0.71919059  0.37625551  0.09441611     0.39600
H1803       H  0.56162706  0.38453534  0.59321595     0.39200
H1804       H  0.56838873  0.34813954  0.57239977     0.34100
C1805       C  0.60363021  0.00559609  0.37224522    -0.27700
C1806       C  0.58653679  0.47519518  0.37098138    -0.15700
C1807       C  0.57980737  0.45714350  0.34081932     0.34900
C1808       C  0.59402811  0.46766623  0.31187518    -0.27100
C1809       C  0.61132764  0.99760665  0.31355343    -0.16400
C1810       C  0.61481761  0.01789392  0.34278373     0.36000
N1811       N  0.63240209  0.04942408  0.34379042    -0.90600
H1812       H  0.60792366  0.02051360  0.39503935     0.17100
H1813       H  0.59222391  0.45142297  0.28975465     0.17100
N1814       N  0.55960194  0.42756885  0.33982509    -0.89600
H1815       H  0.61663226  0.06834253  0.35145137     0.34500
H1816       H  0.63864834  0.05581068  0.31982354     0.39600
H1817       H  0.57284308  0.40725686  0.33094957     0.39200
H1818       H  0.54009935  0.43159979  0.32262610     0.34100
C1819       C  0.91649972  0.06479056  0.15417809    -0.27700
C1820       C  0.91329881  0.04102808  0.12789890    -0.15700
C1821       C  0.90603960  0.50533710  0.13572325     0.34900
C1822       C  0.89446159  0.49910166  0.16700834    -0.27100
C1823       C  0.89408825  0.52502964  0.19126160    -0.16400
C1824       C  0.90493466  0.05732283  0.18527526     0.36000
N1825       N  0.90405953  0.08336021  0.21054136    -0.90600
H1826       H  0.92678910  0.08956969  0.15020375     0.17100
H1827       H  0.88266207  0.47508781  0.17108525     0.17100
N1828       N  0.90661897  0.47845492  0.11126852    -0.89600
H1829       H  0.88987474  0.10316556  0.20114624     0.34500
H1830       H  0.92759440  0.09250672  0.21533259     0.39600
H1831       H  0.88324396  0.46856789  0.10755830     0.39200
H1832       H  0.92175796  0.45960118  0.12110093     0.34100
C1833       C  0.95413718  0.33169842  0.12346195    -0.27700
C1834       C  0.92900973  0.34114417  0.14379747    -0.15700
C1835       C  0.90867108  0.36825562  0.13491556     0.34900
C1836       C  0.91628352  0.38783596  0.10766641    -0.27100
C1837       C  0.94505905  0.38200327  0.09131043    -0.16400
C1838       C  0.96294359  0.35258661  0.09785305     0.36000
N1839       N  0.99080383  0.34464424  0.07952304    -0.90600
H1840       H  0.96964974  0.31058523  0.13024049     0.17100
H1841       H  0.90125997  0.40921595  0.10101294     0.17100
N1842       N  0.38445463  0.36954396  0.15293425    -0.89600
H1843       H  0.98699907  0.32079609  0.06803134     0.34500
H1844       H  0.01063858  0.34275209  0.09651575     0.39600
H1845       H  0.37025313  0.34750649  0.15183334     0.39200
H1846       H  0.37003638  0.38880073  0.14288041     0.34100
C1847       C  0.58503510  0.12954590  0.40924072    -0.27700
C1848       C  0.55394890  0.12998667  0.42172205    -0.15700
C1849       C  0.02466989  0.15465645  0.40400935     0.34900
C1850       C  0.03318491  0.17962536  0.38201699    -0.27100
C1851       C  0.56860855  0.17362631  0.37157460    -0.16400
C1852       C  0.59267974  0.15152041  0.38393320     0.36000
N1853       N  0.62328286  0.14928463  0.36867534    -0.90600
H1854       H  0.60200799  0.10990250  0.41666002     0.14300
H1855       H  0.01437183  0.19559447  0.37108880     0.17100
N1856       N  0.99172803  0.15132207  0.41339607    -0.89600
H1857       H  0.63776786  0.13071846  0.38007874     0.34500
H1858       H  0.63527134  0.17235794  0.37336119     0.39600
H1859       H  0.99156826  0.15539310  0.43917892     0.39200
H1860       H  0.97719302  0.17010463  0.40257536     0.34100
C1861       C  0.85337880  0.35030967  0.89738076     0.85100
C1862       C  0.83390471  0.37344298  0.87309449    -0.55100
C1863       C  0.85123691  0.39434714  0.85342559     0.08100
C1864       C  0.88941898  0.38957189  0.86077777     0.19000
C1865       C  0.87650621  0.33070678  0.87400243    -0.55800
C1866       C  0.89608733  0.35016255  0.85455751     0.08200
C1867       C  0.87631206  0.37513693  0.91752442    -0.55400
C1868       C  0.89560708  0.39602552  0.89981355     0.08700
H1869       H  0.80761437  0.37323605  0.87171781     0.13300
H1870       H  0.90428721  0.40611759  0.84563677    -0.01000
H1871       H  0.87727837  0.30322188  0.87310587     0.13600
H1872       H  0.87695900  0.37604336  0.94454748     0.13300
C1873       C  0.60528013  0.10946198  0.60643262     0.85100
C1874       C  0.62663570  0.13478295  0.58794041    -0.55100
C1875       C  0.64655739  0.15640346  0.60736871     0.08100
C1876       C  0.64187341  0.15023553  0.64629418     0.19000
C1877       C  0.62974851  0.09109129  0.63012850    -0.55800
C1878       C  0.64958825  0.11097617  0.65138997     0.08200
C1879       C  0.58605795  0.13218364  0.63025836    -0.55400
C1880       C  0.60353689  0.15373916  0.65199326     0.08700
H1881       H  0.62644396  0.13496325  0.56095203     0.13300
H1882       H  0.65710433  0.16712423  0.66312398    -0.01000
H1883       H  0.63098530  0.06361611  0.63006109     0.13600
H1884       H  0.55985067  0.13040626  0.63042142     0.13300
N1885       N  0.56025591  0.47981541  0.94945055    -0.07500
N1886       N  0.58529542  0.47398618  0.93099697    -0.59600
N1887       N  0.01421223  0.05673622  0.94038172    -0.07100
N1888       N  0.01030472  0.08469418  0.92333259    -0.61700
N1889       N  0.54377201  0.05762214  0.96318284    -0.06700
N1890       N  0.55819713  0.08715166  0.96067692    -0.59600
N1891       N  0.53322276  0.47450426  0.93080774    -0.06400
N1892       N  0.53983804  0.46418982  0.90061431    -0.62100
C1893       C  0.57222697  0.46432290  0.90062945     0.94700
C1894       C  0.53945500  0.10276453  0.93751418     0.94500
N1895       N  0.92283567  0.03411538  0.97021174    -0.07700
N1896       N  0.89785119  0.05144005  0.46806632    -0.60200
N1897       N  0.95455606  0.46009412  0.93354180    -0.05800
N1898       N  0.94294439  0.44111265  0.90737484    -0.61400
N1899       N  0.93793251  0.45376874  0.95977646    -0.07700
N1900       N  0.91540588  0.43035073  0.95198126    -0.60400
N1901       N  0.94118617  0.04011607  0.94538250    -0.05400
N1902       N  0.92895040  0.06408345  0.92650440    -0.61500
Mn1903     Mn  0.98318743  0.00998643  0.93654700     1.18400
C1904       C  0.90139755  0.07196525  0.94115272     0.96800
C1905       C  0.91843805  0.42201424  0.91918269     0.97500
N1906       N  0.56562662  0.05177904  0.54200119    -0.07700
N1907       N  0.58811892  0.07524310  0.55087570    -0.64000
N1908       N  0.55505114  0.47031305  0.55421940    -0.06500
N1909       N  0.56803126  0.44807409  0.57454201    -0.64700
N1910       N  0.57552734  0.47492571  0.03038252    -0.07200
N1911       N  0.60189530  0.45638683  0.03452941    -0.64300
N1912       N  0.54746982  0.04593960  0.56715341    -0.06100
N1913       N  0.55780430  0.06510836  0.59357878    -0.65000
Mn1914     Mn  0.55925760  0.01800880  0.99616213     1.10700
C1915       C  0.58308431  0.08417425  0.58329649     0.98000
C1916       C  0.59624737  0.44083567  0.56089297     0.98100
N1917       N  0.95723820  0.45124704  0.53859174    -0.07200
N1918       N  0.94112606  0.42324191  0.54387578    -0.62600
N1919       N  0.96967066  0.03329213  0.56868188    -0.06500
N1920       N  0.96487101  0.04578350  0.59855401    -0.59300
N1921       N  0.94185735  0.02795310  0.55152017    -0.07800
N1922       N  0.91788512  0.03576655  0.57089380    -0.62200
N1923       N  0.98328035  0.45412218  0.55884588    -0.06800
N1924       N  0.48387901  0.42634913  0.57794648    -0.59300
Mn1925     Mn  0.94134345  0.49097369  0.50568765     1.20200
Mn1926     Mn  0.51263425  0.50000608  0.56193612     1.10100
Cl1927     Cl  0.99625434  0.00676763  0.99857194    -0.87300
C1928       C  0.95929350  0.40836485  0.56799655     0.95000
C1929       C  0.93266064  0.04716218  0.60003488     0.94800
N1930       N  0.79217431  0.19302575  0.99032076    -0.07500
N1931       N  0.79647122  0.16711982  0.96991658    -0.59600
N1932       N  0.81192883  0.23998846  0.55894975    -0.07100
N1933       N  0.83744491  0.23676917  0.57953696    -0.61700
N1934       N  0.78994126  0.21691985  0.56562318    -0.06700
N1935       N  0.80011870  0.19843068  0.59070014    -0.59600
N1936       N  0.81240573  0.21779436  0.98396185    -0.06400
N1937       N  0.83082112  0.20873704  0.95948482    -0.62100
C1938       C  0.82030385  0.17720350  0.95068685     0.94700
C1939       C  0.82953664  0.21106921  0.59910176     0.94500
N1940       N  0.78360533  0.33611062  0.52537985    -0.07700
N1941       N  0.78290852  0.36595542  0.54040845    -0.60200
N1942       N  0.81546737  0.29611885  0.96010862    -0.05800
N1943       N  0.84137446  0.30466975  0.94320501    -0.61400
N1944       N  0.79019664  0.31384103  0.94971245    -0.07700
N1945       N  0.79873621  0.33450845  0.92564731    -0.60400
N1946       N  0.80799310  0.31804001  0.53689918    -0.05400
N1947       N  0.82459895  0.33537683  0.56088564    -0.61500
Mn1948     Mn  0.81380123  0.26788939  0.51148122     1.18400
C1949       C  0.80860019  0.36552307  0.56224867     0.96800
C1950       C  0.83090474  0.32846282  0.92077887     0.97500
N1951       N  0.71198807  0.19766637  0.56340426    -0.07700
N1952       N  0.70266866  0.17547268  0.58591633    -0.64000
N1953       N  0.69575978  0.19369455  0.97454555    -0.06500
N1954       N  0.68123700  0.17735243  0.94856436    -0.64700
N1955       N  0.71979081  0.17553584  0.98679833    -0.07200
N1956       N  0.72224993  0.14665725  0.97025115    -0.64300
N1957       N  0.68691394  0.21566964  0.55297505    -0.06100
N1958       N  0.66052908  0.20580740  0.56833035    -0.65000
Mn1959     Mn  0.75493171  0.19646544  0.52909590     1.10700
C1960       C  0.67033639  0.18121281  0.59014673     0.98000
C1961       C  0.69794588  0.14763913  0.94679377     0.98100
N1962       N  0.71183907  0.29607964  0.94735551    -0.07200
N1963       N  0.70019856  0.31635140  0.92426324    -0.62600
N1964       N  0.69045749  0.29497348  0.53021322    -0.06500
N1965       N  0.67137786  0.30505023  0.55376555    -0.59300
N1966       N  0.71077754  0.31953200  0.52345570    -0.07800
N1967       N  0.70579560  0.34632753  0.54247677    -0.62200
N1968       N  0.69029188  0.27237204  0.95363702    -0.06800
N1969       N  0.66381096  0.27682908  0.93470724    -0.59300
Mn1970     Mn  0.74727414  0.31570415  0.98409957     1.20200
Mn1971     Mn  0.68872450  0.24360181  0.00055203     1.10100
Cl1972     Cl  0.75221696  0.25662031  0.50809786    -0.87300
C1973       C  0.67035929  0.30423861  0.91688448     0.95000
C1974       C  0.68157245  0.33702430  0.56151267     0.94800
N1975       N  0.96673623  0.19083425  0.78300671    -0.07500
N1976       N  0.95550803  0.16494238  0.79940913    -0.59600
N1977       N  0.94499277  0.21904886  0.71125095    -0.07100
N1978       N  0.92044779  0.21253870  0.69022369    -0.61700
N1979       N  0.96726196  0.19533531  0.70831867    -0.06700
N1980       N  0.95791247  0.17206195  0.68569208    -0.59600
N1981       N  0.94713295  0.21687703  0.78657399    -0.06400
N1982       N  0.92365537  0.20960853  0.80583052    -0.62100
C1983       C  0.92861784  0.17719435  0.81375933     0.94700
C1984       C  0.92879848  0.18349601  0.67470661     0.94500
N1985       N  0.46244745  0.32051911  0.71942646    -0.07700
N1986       N  0.46252602  0.33856024  0.69246893    -0.60200
N1987       N  0.93824675  0.29672206  0.79416674    -0.05800
N1988       N  0.91357527  0.30242719  0.81374538    -0.61400
N1989       N  0.95917977  0.32188030  0.79719876    -0.07700
N1990       N  0.94831612  0.34550743  0.81861573    -0.60400
N1991       N  0.94111220  0.29826416  0.71610573    -0.05400
N1992       N  0.92489416  0.30070242  0.68705669    -0.61500
Mn1993     Mn  0.94257615  0.25750315  0.75210640     1.18400
C1994       C  0.93758187  0.32896167  0.67434854     0.96800
C1995       C  0.91959281  0.33305515  0.82944469     0.97500
N1996       N  0.54595751  0.18882437  0.71133681    -0.07700
N1997       N  0.55464952  0.16503396  0.68928276    -0.64000
N1998       N  0.56345836  0.21327378  0.79288806    -0.06500
N1999       N  0.57691635  0.21266314  0.82344665    -0.64700
N2000       N  0.04346954  0.18894256  0.78508403    -0.07200
N2001       N  0.04211438  0.17081830  0.81176743    -0.64300
N2002       N  0.56878304  0.21213305  0.71480703    -0.06100
N2003       N  0.59333668  0.20417659  0.69532455    -0.65000
Mn2004     Mn  0.00593209  0.19040009  0.74562225     1.10700
C2005       C  0.58445677  0.17445382  0.67885747     0.98000
C2006       C  0.56244009  0.18566286  0.83665265     0.98100
N2007       N  0.53751598  0.31632969  0.79824370    -0.07200
N2008       N  0.54535909  0.33938167  0.82162466    -0.62600
N2009       N  0.55910829  0.29342314  0.72071915    -0.06500
N2010       N  0.58319726  0.30172511  0.70261301    -0.59300
N2011       N  0.53862564  0.31890502  0.72351225    -0.07800
N2012       N  0.54958603  0.34514110  0.70760696    -0.62200
N2013       N  0.56048693  0.29317525  0.79602350    -0.06800
N2014       N  0.58417264  0.30017468  0.81811424    -0.59300
Mn2015     Mn  0.49911668  0.32043479  0.76006046     1.20200
Mn2016     Mn  0.56369428  0.25319848  0.75599853     1.10100
Cl2017     Cl  0.50255063  0.25517701  0.75435475    -0.87300
C2018       C  0.57447202  0.32879396  0.83355164     0.95000
C2019       C  0.57753921  0.33408087  0.69478828     0.94800
N2020       N  0.79092650  0.44054020  0.80187670    -0.07500
N2021       N  0.80036753  0.41300246  0.81836613    -0.59600
N2022       N  0.77155212  0.01512353  0.83616106    -0.07100
N2023       N  0.76694049  0.04182305  0.85559166    -0.61700
N2024       N  0.74630670  0.99491161  0.83568746    -0.06700
N2025       N  0.72382644  0.00791214  0.85465639    -0.59600
N2026       N  0.81524575  0.46222909  0.80197530    -0.06400
N2027       N  0.84130063  0.44942025  0.81859656    -0.62100
C2028       C  0.83222267  0.41796885  0.82845554     0.94700
C2029       C  0.73729169  0.03716687  0.86724666     0.94500
N2030       N  0.78044669  0.08420826  0.76061388    -0.07700
N2031       N  0.79178539  0.11563888  0.76292228    -0.60200
N2032       N  0.83015474  0.52359647  0.74794651    -0.05800
N2033       N  0.86122150  0.51785800  0.74339984    -0.61400
N2034       N  0.81692184  0.53930697  0.72201501    -0.07700
N2035       N  0.83822633  0.54468422  0.69990481    -0.60400
N2036       N  0.78875718  0.06877514  0.78857576    -0.05400
N2037       N  0.80207373  0.09005276  0.81062230    -0.61500
Mn2038     Mn  0.80272189  0.01573636  0.79380278     1.18400
C2039       C  0.80523634  0.11886134  0.79445815     0.96800
C2040       C  0.86547756  0.53165990  0.71337858     0.97500
N2041       N  0.69013715  0.97861894  0.78563947    -0.07700
N2042       N  0.66935253  0.97768722  0.80901156    -0.64000
N2043       N  0.71857109  0.44264659  0.71740382    -0.06500
N2044       N  0.70376722  0.42075036  0.69681930    -0.64700
N2045       N  0.72788329  0.42810741  0.74553574    -0.07200
N2046       N  0.71680190  0.39658236  0.74469135    -0.64300
N2047       N  0.67719935  0.99287090  0.75876991    -0.06100
N2048       N  0.64679707  0.00161473  0.76359559    -0.65000
Mn2049     Mn  0.73892381  0.45972024  0.79112201     1.10700
C2050       C  0.64276105  0.99194703  0.79523364     0.98000
C2051       C  0.70188982  0.39227621  0.71395475     0.98100
N2052       N  0.76186007  0.51945812  0.67133485    -0.07200
N2053       N  0.78509653  0.50738768  0.65275523    -0.62600
N2054       N  0.69308454  0.05076404  0.70447060    -0.06500
N2055       N  0.66621354  0.06164762  0.68855695    -0.59300
N2056       N  0.71645544  0.07333242  0.70296522    -0.07800
N2057       N  0.70512098  0.09999881  0.68561791    -0.62200
N2058       N  0.73778831  0.49762373  0.67095893    -0.06800
N2059       N  0.74398207  0.47081187  0.65225868    -0.59300
Mn2060     Mn  0.76897303  0.05374369  0.71423137     1.20200
Mn2061     Mn  0.70583403  0.49612400  0.71206027     1.10100
Cl2062     Cl  0.75424618  0.00634102  0.75363278    -0.87300
C2063       C  0.77327034  0.47716696  0.64064657     0.95000
C2064       C  0.67304608  0.09291687  0.67715727     0.94800
C2065       C  0.86390355  0.11507203  0.79339280    -0.27700
C2066       C  0.83681777  0.13478141  0.80112968    -0.15700
C2067       C  0.84098476  0.16307904  0.82242357     0.34900
C2068       C  0.87246542  0.17437476  0.83135588    -0.27100
C2069       C  0.89978785  0.15679365  0.82021140    -0.16400
C2070       C  0.89527850  0.12497220  0.80421709     0.36000
N2071       N  0.92247594  0.10361933  0.79782898    -0.90600
H2072       H  0.86035014  0.09123100  0.77967920     0.17100
H2073       H  0.87549296  0.19852725  0.84452898     0.17100
N2074       N  0.81344718  0.18053836  0.83446051    -0.89600
H2075       H  0.91475468  0.08098084  0.78584458     0.34500
H2076       H  0.93305024  0.09698234  0.82091307     0.39600
H2077       H  0.81460726  0.20570267  0.82719603     0.39200
H2078       H  0.81517708  0.18034772  0.86050488     0.34100
C2079       C  0.63158546  0.34307881  0.67393467    -0.27700
C2080       C  0.60623591  0.35562542  0.69272197    -0.15700
C2081       C  0.61317385  0.37989827  0.71833468     0.34900
C2082       C  0.64528925  0.38868452  0.72675826    -0.27100
C2083       C  0.67079305  0.37471256  0.70929917    -0.16400
C2084       C  0.66387633  0.35281881  0.68174777     0.36000
N2085       N  0.68964640  0.34050609  0.66214500    -0.90600
H2086       H  0.62634028  0.32402995  0.65452110     0.17100
H2087       H  0.65027817  0.40757622  0.74641826     0.17100
N2088       N  0.58782762  0.39465215  0.73683762    -0.89600
H2089       H  0.68038180  0.32450234  0.64264051     0.34500
H2090       H  0.70466310  0.32572110  0.67736930     0.39600
H2091       H  0.59217063  0.38921511  0.76200333     0.39200
H2092       H  0.58884747  0.42087707  0.73438009     0.34100
C2093       C  0.79069943  0.41719167  0.63739221    -0.27700
C2094       C  0.79225096  0.45000302  0.62462007    -0.15700
C2095       C  0.80715569  0.45454201  0.59430268     0.34900
C2096       C  0.81785153  0.42610592  0.57628052    -0.27100
C2097       C  0.81313837  0.39303764  0.58750709    -0.16400
C2098       C  0.80048184  0.38875818  0.61886288     0.36000
N2099       N  0.79409318  0.35539381  0.63020379    -0.90600
H2100       H  0.77931397  0.41328382  0.66068299     0.17100
H2101       H  0.82653991  0.42961808  0.55162970     0.17100
N2102       N  0.80855642  0.48714805  0.57962209    -0.89600
H2103       H  0.76920579  0.35322221  0.63322020     0.34500
H2104       H  0.80603970  0.35284394  0.65354130     0.39600
H2105       H  0.82110451  0.50364265  0.59639091     0.39200
H2106       H  0.78486930  0.49614996  0.57599712     0.34100
C2107       C  0.68567949  0.08921971  0.92559103    -0.27700
C2108       C  0.69649844  0.12216849  0.91927786    -0.15700
C2109       C  0.71642739  0.12703966  0.89248244     0.34900
C2110       C  0.72778271  0.09878870  0.87475467    -0.27100
C2111       C  0.71949122  0.06556094  0.88298890    -0.16400
C2112       C  0.69668157  0.06089706  0.90730775     0.36000
N2113       N  0.68654882  0.02749575  0.91523406    -0.90600
H2114       H  0.67075874  0.08518125  0.94652320     0.17100
H2115       H  0.74450854  0.10276832  0.85533481     0.17100
N2116       N  0.72749053  0.16053739  0.88545188    -0.89600
H2117       H  0.66131349  0.02666369  0.91272325     0.34500
H2118       H  0.69317386  0.02352614  0.94024619     0.39600
H2119       H  0.70727404  0.17450368  0.87755868     0.39200
H2120       H  0.74299987  0.15978080  0.86562782     0.34100
C2121       C  0.58871076  0.33776008  0.89153109    -0.27700
C2122       C  0.59492259  0.34606824  0.85892376    -0.15700
C2123       C  0.62704462  0.35267649  0.85061098     0.34900
C2124       C  0.65235898  0.34117281  0.87135594    -0.27100
C2125       C  0.64539563  0.32448770  0.90033962    -0.16400
C2126       C  0.61412928  0.32652226  0.91254807     0.36000
N2127       N  0.60804793  0.31585645  0.94544851    -0.90600
H2128       H  0.56400325  0.33445296  0.89872058     0.17100
H2129       H  0.67694996  0.34233306  0.86329456     0.17100
N2130       N  0.63435970  0.36691273  0.81943398    -0.89600
H2131       H  0.59070407  0.29648993  0.94355114     0.34500
H2132       H  0.59825927  0.33636884  0.95839055     0.39600
H2133       H  0.62418971  0.39100080  0.81829203     0.39200
H2134       H  0.62394864  0.35186370  0.79991807     0.34100
C2135       C  0.88238507  0.18314945  0.60056081    -0.27700
C2136       C  0.85368722  0.19067739  0.61630699    -0.15700
C2137       C  0.84874008  0.17864789  0.64808246     0.34900
C2138       C  0.87469882  0.16399322  0.66574283    -0.27100
C2139       C  0.90562698  0.16518878  0.65296335    -0.16400
C2140       C  0.90863855  0.16985818  0.61894796     0.36000
N2141       N  0.93945225  0.16622347  0.60458677    -0.90600
H2142       H  0.88523471  0.19002990  0.57495105     0.17100
H2143       H  0.87225302  0.15967710  0.69200547     0.17100
N2144       N  0.81891305  0.18483917  0.66377451    -0.89600
H2145       H  0.94599170  0.18962538  0.59527439     0.34500
H2146       H  0.93667272  0.14896971  0.58448646     0.39600
H2147       H  0.82397999  0.19977484  0.68523049     0.39200
H2148       H  0.80985832  0.16155722  0.67111197     0.34100
C2149       C  0.89180112  0.13072519  0.92486488    -0.27700
C2150       C  0.87947423  0.09823175  0.92949022    -0.15700
C2151       C  0.84597807  0.09226654  0.92711398     0.34900
C2152       C  0.82518602  0.12004479  0.92685916    -0.27100
C2153       C  0.83800967  0.15298322  0.93035662    -0.16400
C2154       C  0.87096527  0.15850048  0.92491671     0.36000
N2155       N  0.88378312  0.19209438  0.92291464    -0.90600
H2156       H  0.91771597  0.13493000  0.92470722     0.17100
H2157       H  0.79941277  0.11583867  0.92866246     0.17100
N2158       N  0.83350000  0.05825064  0.92727153    -0.89600
H2159       H  0.89581959  0.19349141  0.90077860     0.34500
H2160       H  0.90099578  0.19595607  0.94260496     0.39600
H2161       H  0.84088830  0.04574417  0.90576375     0.39200
H2162       H  0.80816464  0.05837296  0.92555213     0.34100
C2163       C  0.65092419  0.42220062  0.57837334    -0.27700
C2164       C  0.61799392  0.41478637  0.57319325    -0.15700
C2165       C  0.60646385  0.38156960  0.57633009     0.34900
C2166       C  0.62881008  0.35528969  0.57947522    -0.27100
C2167       C  0.66199980  0.36217197  0.57865020    -0.16400
C2168       C  0.67317046  0.39602657  0.58251834     0.36000
N2169       N  0.70681507  0.40449194  0.58865094    -0.90600
H2170       H  0.65943125  0.44817480  0.57781493     0.17100
H2171       H  0.62014638  0.32934127  0.57798916     0.17100
N2172       N  0.57110429  0.37419020  0.07432498    -0.89600
H2173       H  0.71528284  0.41469319  0.56710788     0.34500
H2174       H  0.72050270  0.38284447  0.59430755     0.39600
H2175       H  0.56133772  0.38425038  0.09585438     0.39200
H2176       H  0.56619576  0.34816547  0.07374297     0.34100
C2177       C  0.60426765  0.00499498  0.87288460    -0.27700
C2178       C  0.58731229  0.47324288  0.86979233    -0.15700
C2179       C  0.57956845  0.45581417  0.83945328     0.34900
C2180       C  0.59322077  0.46658339  0.81032198    -0.27100
C2181       C  0.61429804  0.99585198  0.81465639    -0.16400
C2182       C  0.61807047  0.01590814  0.84411630     0.36000
N2183       N  0.63791733  0.04594884  0.84618059    -0.90600
H2184       H  0.60750845  0.02035521  0.89549193     0.17100
H2185       H  0.59076108  0.45068240  0.78802747     0.17100
N2186       N  0.55859922  0.42683309  0.83833079    -0.89600
H2187       H  0.62328020  0.06614025  0.85319556     0.34500
H2188       H  0.64597737  0.05180786  0.82275936     0.39600
H2189       H  0.57100923  0.40638422  0.82825154     0.39200
H2190       H  0.53881390  0.43187540  0.82196942     0.34100
C2191       C  0.92009509  0.06684721  0.65709992    -0.27700
C2192       C  0.91925019  0.04119442  0.63241247    -0.15700
C2193       C  0.90002689  0.50822445  0.63601546     0.34900
C2194       C  0.88905407  0.50300352  0.66779420    -0.27100
C2195       C  0.89295042  0.52808968  0.69282553    -0.16400
C2196       C  0.90879978  0.06039267  0.68867938     0.36000
N2197       N  0.90728403  0.08724040  0.71310609    -0.90600
H2198       H  0.92859946  0.09198845  0.65159683     0.17100
H2199       H  0.87398397  0.48109261  0.67186839     0.17100
N2200       N  0.89437196  0.48274168  0.61017446    -0.89600
H2201       H  0.89245767  0.10636028  0.70299272     0.34500
H2202       H  0.93045173  0.09717560  0.71753753     0.39600
H2203       H  0.87813712  0.49276537  0.59222750     0.39200
H2204       H  0.88277797  0.46166680  0.61936762     0.34100
C2205       C  0.96016606  0.33136081  0.61993760    -0.27700
C2206       C  0.93400368  0.33868381  0.63968469    -0.15700
C2207       C  0.91174012  0.36393169  0.63025298     0.34900
C2208       C  0.91866586  0.38473414  0.60371292    -0.27100
C2209       C  0.94752056  0.38041274  0.58723272    -0.16400
C2210       C  0.96704613  0.35217142  0.59361960     0.36000
N2211       N  0.99461056  0.34553081  0.57442177    -0.90600
H2212       H  0.97720281  0.31168268  0.62711559     0.17100
H2213       H  0.90315336  0.40608538  0.59791699     0.17100
N2214       N  0.38364556  0.36231874  0.64766586    -0.89600
H2215       H  0.99161010  0.32149661  0.56326439     0.34500
H2216       H  0.01492606  0.34468795  0.59095499     0.39600
H2217       H  0.36977008  0.34007773  0.64491449     0.39200
H2218       H  0.36925247  0.38184408  0.63816966     0.34100
C2219       C  0.58062969  0.13867330  0.91328638    -0.27700
C2220       C  0.54847286  0.13435791  0.92222511    -0.15700
C2221       C  0.02103570  0.15712399  0.90428294     0.34900
C2222       C  0.02989179  0.17972111  0.88019584    -0.27100
C2223       C  0.56206625  0.17843493  0.87194969    -0.16400
C2224       C  0.58759581  0.16043142  0.88749242     0.36000
N2225       N  0.61925484  0.16122101  0.87438312    -0.90600
H2226       H  0.59939418  0.12210905  0.92328306     0.14300
H2227       H  0.01113371  0.19377939  0.86673150     0.17100
N2228       N  0.98771028  0.15367411  0.91233084    -0.89600
H2229       H  0.63512538  0.14554883  0.88808744     0.34500
H2230       H  0.62815836  0.18586195  0.87778713     0.39600
H2231       H  0.98617599  0.16046039  0.93743254     0.39200
H2232       H  0.97308581  0.17066672  0.89881831     0.34100
C2233       C  0.85222549  0.84980801  0.39754667     0.85100
C2234       C  0.83242235  0.87311659  0.37359638    -0.55100
C2235       C  0.84952363  0.89466858  0.35426697     0.08100
C2236       C  0.88772602  0.89015068  0.36141068     0.19000
C2237       C  0.87553767  0.83088089  0.37372333    -0.55800
C2238       C  0.89484832  0.85077119  0.35432495     0.08200
C2239       C  0.87475977  0.87475096  0.41799743    -0.55400
C2240       C  0.89358986  0.89633997  0.40063077     0.08700
H2241       H  0.80613411  0.87269555  0.37237423     0.13300
H2242       H  0.90231761  0.90724289  0.34654988    -0.01000
H2243       H  0.87646132  0.80341342  0.37234739     0.13600
H2244       H  0.87519421  0.87551181  0.44501578     0.13300
C2245       C  0.60485932  0.61036417  0.10368510     0.85100
C2246       C  0.62618570  0.63544486  0.08512239    -0.55100
C2247       C  0.64610786  0.65704727  0.10438848     0.08100
C2248       C  0.64151901  0.65098452  0.14343411     0.19000
C2249       C  0.62911977  0.59186357  0.12751740    -0.55800
C2250       C  0.64902080  0.61166891  0.14877139     0.08200
C2251       C  0.58562792  0.63319761  0.12740504    -0.55400
C2252       C  0.60320349  0.65463322  0.14916294     0.08700
H2253       H  0.62591134  0.63554851  0.05812507     0.13300
H2254       H  0.65681558  0.66787396  0.16019689    -0.01000
H2255       H  0.63013575  0.56438011  0.12756670     0.13600
H2256       H  0.55940933  0.63155095  0.12753346     0.13300
N2257       N  0.55863525  0.98143823  0.45143434    -0.07500
N2258       N  0.58389288  0.97572623  0.43332064    -0.59600
N2259       N  0.01986693  0.55393231  0.44126508    -0.07100
N2260       N  0.01750096  0.58088498  0.42253751    -0.61700
N2261       N  0.54529727  0.55542248  0.46174409    -0.06700
N2262       N  0.56038687  0.58424820  0.45728678    -0.59600
N2263       N  0.53177905  0.97601599  0.43262255    -0.06400
N2264       N  0.53868664  0.96573395  0.40255550    -0.62100
C2265       C  0.57107973  0.96602751  0.40291296     0.94700
C2266       C  0.54199854  0.59863393  0.43302534     0.94500
N2267       N  0.92740899  0.53139119  0.47130757    -0.07700
N2268       N  0.90186965  0.54931965  0.96917706    -0.60200
N2269       N  0.95069372  0.96178878  0.43491855    -0.05800
N2270       N  0.93995913  0.94210915  0.40894273    -0.61400
N2271       N  0.93331209  0.95630733  0.46083359    -0.07700
N2272       N  0.91100312  0.93259167  0.45286741    -0.60400
N2273       N  0.94555238  0.53754252  0.44629798    -0.05400
N2274       N  0.93156997  0.55935278  0.42600242    -0.61500
Mn2275     Mn  0.98813248  0.50754377  0.43774896     1.18400
C2276       C  0.90319817  0.56567665  0.43987673     0.96800
C2277       C  0.91512773  0.92333136  0.42034877     0.97500
N2278       N  0.56641292  0.55213584  0.03934416    -0.07700
N2279       N  0.58865174  0.57583162  0.04823636    -0.64000
N2280       N  0.55278641  0.97158041  0.05517720    -0.06500
N2281       N  0.56562650  0.94913752  0.07555107    -0.64700
N2282       N  0.57358445  0.97458211  0.53070369    -0.07200
N2283       N  0.59969124  0.95558610  0.53345459    -0.64300
N2284       N  0.54789672  0.54674845  0.06437992    -0.06100
N2285       N  0.55764726  0.56639396  0.09058662    -0.65000
Mn2286     Mn  0.56092655  0.51647446  0.49526507     1.10700
C2287       C  0.58294212  0.58529586  0.08039075     0.98000
C2288       C  0.59400554  0.94170450  0.06210240     0.98100
N2289       N  0.95193898  0.95424206  0.03803696    -0.07200
N2290       N  0.93677730  0.92563286  0.04337997    -0.62600
N2291       N  0.97144892  0.52933785  0.06804669    -0.06500
N2292       N  0.96535650  0.54157409  0.09768107    -0.59300
N2293       N  0.94433357  0.52404743  0.04979597    -0.07800
N2294       N  0.91945338  0.53203019  0.06772630    -0.62200
N2295       N  0.97792535  0.95796292  0.05822849    -0.06800
N2296       N  0.47927053  0.93012084  0.07804916    -0.59300
Mn2297     Mn  0.93603215  0.99352563  0.00441052     1.20200
Mn2298     Mn  0.51031377  0.00251895  0.06207923     1.10100
Cl2299     Cl  0.00141645  0.50424031  0.49995693    -0.87300
C2300       C  0.95560905  0.91135411  0.06743457     0.95000
C2301       C  0.93299366  0.54314684  0.09741995     0.94800
N2302       N  0.79289396  0.69032685  0.49039180    -0.07500
N2303       N  0.79780221  0.66362557  0.47117041    -0.59600
N2304       N  0.81072624  0.74033992  0.05745400    -0.07100
N2305       N  0.83640968  0.73714116  0.07784813    -0.61700
N2306       N  0.78903546  0.71683634  0.06377816    -0.06700
N2307       N  0.79969109  0.69800499  0.08845564    -0.59600
N2308       N  0.81321047  0.71492872  0.48369879    -0.06400
N2309       N  0.83233362  0.70488014  0.46013230    -0.62100
C2310       C  0.82216746  0.67293141  0.45229333     0.94700
C2311       C  0.82905735  0.71088714  0.09694287     0.94500
N2312       N  0.78124297  0.83553886  0.02166341    -0.07700
N2313       N  0.77913963  0.86496894  0.03728237    -0.60200
N2314       N  0.81568542  0.79455260  0.46061318    -0.05800
N2315       N  0.84114301  0.80332595  0.44308381    -0.61400
N2316       N  0.79021552  0.81240106  0.45091365    -0.07700
N2317       N  0.79819645  0.83329318  0.42678572    -0.60400
N2318       N  0.80537463  0.81772484  0.03419967    -0.05400
N2319       N  0.82031882  0.83477924  0.05942432    -0.61500
Mn2320     Mn  0.81290913  0.76755095  0.00977836     1.18400
C2321       C  0.80368268  0.86450689  0.06050094     0.96800
C2322       C  0.83019878  0.82733170  0.42103162     0.97500
N2323       N  0.71106132  0.69764057  0.05942552    -0.07700
N2324       N  0.70197736  0.67618506  0.08268820    -0.64000
N2325       N  0.69597495  0.69379165  0.47635650    -0.06500
N2326       N  0.68141648  0.67927240  0.44943193    -0.64700
N2327       N  0.71999259  0.67490902  0.48742596    -0.07200
N2328       N  0.72237945  0.64717766  0.46904586    -0.64300
N2329       N  0.68585809  0.71508020  0.04831679    -0.06100
N2330       N  0.65954625  0.70541762  0.06392350    -0.65000
Mn2331     Mn  0.75468075  0.69617491  0.02623424     1.10700
C2332       C  0.66959667  0.68170130  0.08663342     0.98000
C2333       C  0.69805713  0.64980592  0.44575357     0.98100
N2334       N  0.71136568  0.79552864  0.44982077    -0.07200
N2335       N  0.69945592  0.81497106  0.42607904    -0.62600
N2336       N  0.68824892  0.79458151  0.02454431    -0.06500
N2337       N  0.66892277  0.80492928  0.04784294    -0.59300
N2338       N  0.70846636  0.81915691  0.01760942    -0.07800
N2339       N  0.70320377  0.84616115  0.03624342    -0.62200
N2340       N  0.69020272  0.77164889  0.45647488    -0.06800
N2341       N  0.66385158  0.77482667  0.43703895    -0.59300
Mn2342     Mn  0.74802623  0.81427530  0.48616508     1.20200
Mn2343     Mn  0.68982064  0.74291903  0.50333196     1.10100
Cl2344     Cl  0.75137603  0.75599056  0.00457655    -0.87300
C2345       C  0.66990087  0.80187371  0.41849962     0.95000
C2346       C  0.67895704  0.83707273  0.05529205     0.94800
N2347       N  0.96626131  0.69179696  0.28279879    -0.07500
N2348       N  0.95519803  0.66631685  0.29975553    -0.59600
N2349       N  0.94278311  0.71748687  0.21117784    -0.07100
N2350       N  0.91776963  0.70993700  0.19102792    -0.61700
N2351       N  0.96541116  0.69417783  0.20803192    -0.06700
N2352       N  0.95608868  0.67042338  0.18589027    -0.59600
N2353       N  0.94707781  0.71812333  0.28654428    -0.06400
N2354       N  0.92417845  0.71150607  0.30661640    -0.62100
C2355       C  0.92865855  0.67899626  0.31438603     0.94700
C2356       C  0.92634012  0.68080821  0.17579887     0.94500
N2357       N  0.46153027  0.82223753  0.21637632    -0.07700
N2358       N  0.45936145  0.84199936  0.19060565    -0.60200
N2359       N  0.93652050  0.79752029  0.29260341    -0.05800
N2360       N  0.91195188  0.80333839  0.31238109    -0.61400
N2361       N  0.95761734  0.82248971  0.29567494    -0.07700
N2362       N  0.94694214  0.84610621  0.31732982    -0.60400
N2363       N  0.94024140  0.79739852  0.21405634    -0.05400
N2364       N  0.92493875  0.79914551  0.18442918    -0.61500
Mn2365     Mn  0.94121989  0.75743128  0.25105146     1.18400
C2366       C  0.93843101  0.82687469  0.17146206     0.96800
C2367       C  0.91810716  0.83389063  0.32831849     0.97500
N2368       N  0.54588147  0.68981264  0.20862250    -0.07700
N2369       N  0.55450880  0.66589716  0.18668082    -0.64000
N2370       N  0.56332471  0.71489675  0.29017085    -0.06500
N2371       N  0.57751041  0.71333200  0.32042113    -0.64700
N2372       N  0.04193259  0.68873315  0.28408279    -0.07200
N2373       N  0.04157472  0.67020234  0.31061245    -0.64300
N2374       N  0.56869740  0.71307586  0.21188139    -0.06100
N2375       N  0.59320008  0.70506576  0.19238801    -0.65000
Mn2376     Mn  0.00445570  0.69007427  0.24488239     1.10700
C2377       C  0.58427686  0.67528291  0.17612042     0.98000
C2378       C  0.56323302  0.68586578  0.33320516     0.98100
N2379       N  0.53865516  0.81840807  0.29384474    -0.07200
N2380       N  0.54719991  0.84124187  0.31728071    -0.62600
N2381       N  0.55858856  0.79390605  0.21621899    -0.06500
N2382       N  0.58283313  0.80204022  0.19824154    -0.59300
N2383       N  0.53815927  0.81948969  0.21879123    -0.07800
N2384       N  0.54937347  0.84554255  0.20282070    -0.62200
N2385       N  0.56136427  0.79505043  0.29120895    -0.06800
N2386       N  0.58559401  0.80176287  0.31266059    -0.59300
Mn2387     Mn  0.49921284  0.82201863  0.25619043     1.20200
Mn2388     Mn  0.56361743  0.75443383  0.25233822     1.10100
Cl2389     Cl  0.50240767  0.75672916  0.25116006    -0.87300
C2390       C  0.57666574  0.83045980  0.32829495     0.95000
C2391       C  0.57763878  0.83452131  0.19061816     0.94800
N2392       N  0.78899439  0.94264184  0.30476316    -0.07500
N2393       N  0.79821238  0.91490598  0.32101014    -0.59600
N2394       N  0.77253848  0.51971543  0.33434068    -0.07100
N2395       N  0.76763379  0.54724217  0.35256315    -0.61700
N2396       N  0.74737470  0.49936617  0.33427308    -0.06700
N2397       N  0.72476714  0.51302613  0.35254440    -0.59600
N2398       N  0.81371096  0.96374546  0.30409434    -0.06400
N2399       N  0.83988703  0.95030073  0.31998275    -0.62100
C2400       C  0.83034891  0.91908915  0.33019164     0.94700
C2401       C  0.73791735  0.54282294  0.36400503     0.94500
N2402       N  0.78014592  0.58736305  0.25810774    -0.07700
N2403       N  0.79016190  0.61931313  0.25969359    -0.60200
N2404       N  0.82897040  0.02227290  0.24732248    -0.05800
N2405       N  0.85968075  0.01521838  0.24184616    -0.61400
N2406       N  0.81501009  0.03610684  0.22066084    -0.07700
N2407       N  0.83518660  0.03813514  0.19689702    -0.60400
N2408       N  0.78976753  0.57257179  0.28604652    -0.05400
N2409       N  0.80280679  0.59474235  0.30745079    -0.61500
Mn2410     Mn  0.80337291  0.51909507  0.29233851     1.18400
C2411       C  0.80429662  0.62357243  0.29083951     0.96800
C2412       C  0.86256741  0.02516202  0.21003545     0.97500
N2413       N  0.69066507  0.48150988  0.28496561    -0.07700
N2414       N  0.66981182  0.48066731  0.30826316    -0.64000
N2415       N  0.71545618  0.94414906  0.22188290    -0.06500
N2416       N  0.70131684  0.92169739  0.20148607    -0.64700
N2417       N  0.72518680  0.93009834  0.25011969    -0.07200
N2418       N  0.71506157  0.89822728  0.24963622    -0.64300
N2419       N  0.67748630  0.49465675  0.25763714    -0.06100
N2420       N  0.64681723  0.50258324  0.26200359    -0.65000
Mn2421     Mn  0.73731706  0.96253873  0.29465408     1.10700
C2422       C  0.64291484  0.49375062  0.29390039     0.98000
C2423       C  0.70053389  0.89326260  0.21879315     0.98100
N2424       N  0.75844008  0.01787246  0.17204668    -0.07200
N2425       N  0.78055489  0.00491043  0.15266252    -0.62600
N2426       N  0.69284523  0.55168934  0.20222999    -0.06500
N2427       N  0.66598227  0.56213826  0.18591213    -0.59300
N2428       N  0.71587368  0.57469047  0.20103216    -0.07800
N2429       N  0.70432798  0.60119118  0.18358238    -0.62200
N2430       N  0.73395260  0.99677330  0.17303157    -0.06800
N2431       N  0.73870858  0.96947180  0.15449877    -0.59300
Mn2432     Mn  0.76851417  0.55584987  0.21251863     1.20200
Mn2433     Mn  0.70334542  0.99755281  0.21505690     1.10100
Cl2434     Cl  0.75448597  0.50865957  0.25254161    -0.87300
C2435       C  0.76759741  0.97484587  0.14157096     0.95000
C2436       C  0.67247711  0.59358384  0.17462864     0.94800
C2437       C  0.86227491  0.62149203  0.28705758    -0.27700
C2438       C  0.83547958  0.64082196  0.29637985    -0.15700
C2439       C  0.84029816  0.66830680  0.31908875     0.34900
C2440       C  0.87201836  0.67717818  0.32987928    -0.27100
C2441       C  0.89895803  0.65926905  0.31837289    -0.16400
C2442       C  0.89370068  0.62939930  0.29915747     0.36000
N2443       N  0.92030931  0.60785249  0.29111015    -0.90600
H2444       H  0.85833025  0.59878424  0.27160505     0.17100
H2445       H  0.87581038  0.70003829  0.34509729     0.17100
N2446       N  0.81390969  0.68788663  0.33123300    -0.89600
H2447       H  0.91195753  0.58636634  0.27738395     0.34500
H2448       H  0.93055634  0.59900245  0.31344887     0.39600
H2449       H  0.79168609  0.67924306  0.32068219     0.39200
H2450       H  0.81667300  0.71269422  0.32331020     0.34100
C2451       C  0.63298603  0.84518436  0.17342570    -0.27700
C2452       C  0.60680438  0.85579382  0.19206049    -0.15700
C2453       C  0.61277570  0.87709951  0.22035846     0.34900
C2454       C  0.64456491  0.88474055  0.23122663    -0.27100
C2455       C  0.67075955  0.87363927  0.21311344    -0.16400
C2456       C  0.66490249  0.85488977  0.18318466     0.36000
N2457       N  0.69133297  0.84656609  0.16265794    -0.90600
H2458       H  0.62857865  0.82828932  0.15201319     0.17100
H2459       H  0.64866930  0.90154186  0.25279312     0.17100
N2460       N  0.58664525  0.89037085  0.23874977    -0.89600
H2461       H  0.68288568  0.83295253  0.14114740     0.34500
H2462       H  0.70684416  0.83058312  0.17600918     0.39600
H2463       H  0.58946807  0.88233796  0.26323436     0.39200
H2464       H  0.58824310  0.91684587  0.23900989     0.34100
C2465       C  0.78174337  0.91402362  0.13580120    -0.27700
C2466       C  0.78517889  0.94729120  0.12459437    -0.15700
C2467       C  0.80206438  0.95260072  0.09560961     0.34900
C2468       C  0.81231837  0.92459139  0.07680491    -0.27100
C2469       C  0.80643334  0.89128717  0.08660482    -0.16400
C2470       C  0.79231053  0.88596797  0.11711500     0.36000
N2471       N  0.78577492  0.85206092  0.12725224    -0.90600
H2472       H  0.76915686  0.90979206  0.15832204     0.17100
H2473       H  0.82247857  0.92880726  0.05293957     0.17100
N2474       N  0.80672233  0.98587907  0.08327516    -0.89600
H2475       H  0.77431183  0.85241437  0.14967973     0.34500
H2476       H  0.80819028  0.84008603  0.13168817     0.39600
H2477       H  0.82022185  0.00008246  0.10139840     0.39200
H2478       H  0.78407766  0.99724682  0.07950360     0.34100
C2479       C  0.68546369  0.59266582  0.42256911    -0.27700
C2480       C  0.69586141  0.62586700  0.41711286    -0.15700
C2481       C  0.71497689  0.63203752  0.38996930     0.34900
C2482       C  0.72738265  0.60444389  0.37197780    -0.27100
C2483       C  0.71992946  0.57084978  0.37987181    -0.16400
C2484       C  0.69679344  0.56503685  0.40363856     0.36000
N2485       N  0.68638821  0.53112825  0.40984898    -0.90600
H2486       H  0.67071392  0.58799734  0.44349531     0.17100
H2487       H  0.74392180  0.60917778  0.35255208     0.17100
N2488       N  0.72390943  0.66618487  0.38270198    -0.89600
H2489       H  0.66879451  0.53135666  0.42766085     0.34500
H2490       H  0.70628170  0.51804168  0.42004680     0.39600
H2491       H  0.70261188  0.67900039  0.37563802     0.39200
H2492       H  0.73849388  0.66643583  0.36225523     0.34100
C2493       C  0.58795018  0.83179202  0.38701462    -0.27700
C2494       C  0.59608845  0.84428815  0.35638792    -0.15700
C2495       C  0.62872682  0.85189323  0.35096648     0.34900
C2496       C  0.65296921  0.83962495  0.37276207    -0.27100
C2497       C  0.64466011  0.82035464  0.39982069    -0.16400
C2498       C  0.61212739  0.81910379  0.40870427     0.36000
N2499       N  0.60344789  0.80390324  0.43897946    -0.90600
H2500       H  0.56280536  0.82679654  0.39172363     0.17100
H2501       H  0.67812075  0.84277356  0.36703847     0.17100
N2502       N  0.63779472  0.86889411  0.32177030    -0.89600
H2503       H  0.58737783  0.78392585  0.43292019     0.34500
H2504       H  0.59128943  0.82203548  0.45296382     0.39600
H2505       H  0.62619516  0.89239905  0.32126528     0.39200
H2506       H  0.62970475  0.85470613  0.30070955     0.34100
C2507       C  0.88384831  0.68675496  0.10008819    -0.27700
C2508       C  0.85366737  0.69074984  0.11414301    -0.15700
C2509       C  0.84739543  0.67476273  0.14386857     0.34900
C2510       C  0.87311108  0.66019436  0.16203208    -0.27100
C2511       C  0.90469348  0.66383684  0.15146357    -0.16400
C2512       C  0.90952494  0.67215119  0.11847518     0.36000
N2513       N  0.94153671  0.67113214  0.10618553    -0.90600
H2514       H  0.88784931  0.69672725  0.07577306     0.17100
H2515       H  0.86928712  0.65304518  0.18736907     0.17100
N2516       N  0.81595898  0.67635493  0.15722754    -0.89600
H2517       H  0.94119333  0.67960510  0.08170477     0.34500
H2518       H  0.94859201  0.64577211  0.10526019     0.39600
H2519       H  0.81818146  0.68880220  0.18050086     0.39200
H2520       H  0.80820151  0.65157063  0.16088263     0.34100
C2521       C  0.89363076  0.62468783  0.42554203    -0.27700
C2522       C  0.88098519  0.59211209  0.42872050    -0.15700
C2523       C  0.84732679  0.58686883  0.42747505     0.34900
C2524       C  0.82704716  0.61512180  0.42899667    -0.27100
C2525       C  0.84042096  0.64783177  0.43332145    -0.16400
C2526       C  0.87353533  0.65286603  0.42824672     0.36000
N2527       N  0.88747688  0.68614644  0.42945931    -0.90600
H2528       H  0.91959487  0.62851738  0.42518602     0.17100
H2529       H  0.80124437  0.61130560  0.43098937     0.17100
N2530       N  0.83422105  0.55307979  0.42704268    -0.89600
H2531       H  0.89919771  0.68954222  0.40735512     0.34500
H2532       H  0.90496774  0.68742347  0.44917262     0.39600
H2533       H  0.84043970  0.54115206  0.40482088     0.39200
H2534       H  0.80887440  0.55376719  0.42645322     0.34100
C2535       C  0.64910792  0.92226383  0.07810865    -0.27700
C2536       C  0.61593321  0.91528321  0.07415978    -0.15700
C2537       C  0.60458685  0.88186897  0.07672227     0.34900
C2538       C  0.62692891  0.85532011  0.07628542    -0.27100
C2539       C  0.65993785  0.86218939  0.07342449    -0.16400
C2540       C  0.67137403  0.89581860  0.07903791     0.36000
N2541       N  0.70504814  0.90389679  0.08521675    -0.90600
H2542       H  0.65774716  0.94823199  0.07855310     0.17100
H2543       H  0.61809857  0.82945699  0.07410265     0.17100
N2544       N  0.57151934  0.87131596  0.57521677    -0.89600
H2545       H  0.71790754  0.89894358  0.06413256     0.34500
H2546       H  0.71425384  0.88896500  0.10468510     0.39600
H2547       H  0.56604843  0.85939208  0.59711487     0.39200
H2548       H  0.56678991  0.85420550  0.55524466     0.34100
C2549       C  0.60348260  0.50601760  0.37075038    -0.27700
C2550       C  0.58623770  0.97501933  0.37228441    -0.15700
C2551       C  0.57758857  0.95826109  0.34181617     0.34900
C2552       C  0.59081706  0.96928667  0.31260280    -0.27100
C2553       C  0.61399639  0.49647571  0.31270931    -0.16400
C2554       C  0.61648432  0.51731768  0.34171725     0.36000
N2555       N  0.63468886  0.54847990  0.34321239    -0.90600
H2556       H  0.60659596  0.52161112  0.39325807     0.17100
H2557       H  0.58783031  0.95374268  0.29007877     0.17100
N2558       N  0.55613500  0.92966591  0.34067933    -0.89600
H2559       H  0.61895897  0.56788803  0.34969932     0.34500
H2560       H  0.64250141  0.55433874  0.31966292     0.39600
H2561       H  0.56812104  0.90908200  0.33016047     0.39200
H2562       H  0.53615571  0.93529348  0.32482489     0.34100
C2563       C  0.92080744  0.56251338  0.15418371    -0.27700
C2564       C  0.91768008  0.53781902  0.12872839    -0.15700
C2565       C  0.90216184  0.00804819  0.13389603     0.34900
C2566       C  0.89141985  0.00039888  0.16523061    -0.27100
C2567       C  0.89106506  0.02538273  0.19047031    -0.16400
C2568       C  0.90875149  0.55637234  0.18536806     0.36000
N2569       N  0.90865644  0.58297528  0.21015547    -0.90600
H2570       H  0.93167605  0.58686014  0.14954876     0.17100
H2571       H  0.87999010  0.97604503  0.16861243     0.17100
N2572       N  0.90183403  0.98223785  0.10821021    -0.89600
H2573       H  0.89548283  0.60321230  0.20019462     0.34500
H2574       H  0.93249908  0.59111995  0.21509357     0.39600
H2575       H  0.87820148  0.97303536  0.10441796     0.39200
H2576       H  0.91657258  0.96242044  0.11670156     0.34100
C2577       C  0.96001624  0.83219740  0.11676507    -0.27700
C2578       C  0.93403775  0.83786562  0.13727281    -0.15700
C2579       C  0.91146907  0.86344938  0.12982339     0.34900
C2580       C  0.91704032  0.88515664  0.10365576    -0.27100
C2581       C  0.94546601  0.88232270  0.08626077    -0.16400
C2582       C  0.96616737  0.85459238  0.09134588     0.36000
N2583       N  0.99419655  0.85050458  0.07197856    -0.90600
H2584       H  0.97746377  0.81259012  0.12296748     0.17100
H2585       H  0.90084764  0.90622261  0.09900634     0.17100
N2586       N  0.38256796  0.87409366  0.15337357    -0.89600
H2587       H  0.98604385  0.84645696  0.04716459     0.34500
H2588       H  0.00697727  0.82877177  0.07896796     0.39600
H2589       H  0.36634968  0.85375418  0.15250079     0.39200
H2590       H  0.36946490  0.89532158  0.14540368     0.34100
C2591       C  0.58272358  0.63268285  0.40566559    -0.27700
C2592       C  0.55107857  0.62950649  0.41643962    -0.15700
C2593       C  0.03223598  0.65582565  0.40805224     0.34900
C2594       C  0.03954053  0.67876109  0.38357581    -0.27100
C2595       C  0.56432224  0.67631814  0.36804983    -0.16400
C2596       C  0.58937556  0.65552162  0.38062365     0.36000
N2597       N  0.61993613  0.65477576  0.36515441    -0.90600
H2598       H  0.60111514  0.61475633  0.41381401     0.14300
H2599       H  0.02136970  0.69689893  0.37533359     0.17100
N2600       N  0.00175447  0.65729818  0.42370130    -0.89600
H2601       H  0.63531299  0.63701030  0.37641479     0.34500
H2602       H  0.63090556  0.67851260  0.36947577     0.39600
H2603       H  0.00672516  0.66190302  0.44915036     0.39200
H2604       H  0.98802982  0.67777290  0.41500488     0.34100
C2605       C  0.85395719  0.84915471  0.89767247     0.85100
C2606       C  0.83414244  0.87141062  0.87296493    -0.55100
C2607       C  0.85122285  0.89277758  0.85364862     0.08100
C2608       C  0.88933272  0.88925260  0.86150827     0.19000
C2609       C  0.87793570  0.83011735  0.87494768    -0.55800
C2610       C  0.89716757  0.85005048  0.85565719     0.08200
C2611       C  0.87571001  0.87480876  0.91807733    -0.55400
C2612       C  0.89452307  0.89621749  0.90050075     0.08700
H2613       H  0.80786335  0.87048276  0.87121892     0.13300
H2614       H  0.90390516  0.90623332  0.84651294    -0.01000
H2615       H  0.87937015  0.80266183  0.87418373     0.13600
H2616       H  0.87573975  0.87607384  0.94507419     0.13300
C2617       C  0.60370699  0.60935739  0.60570551     0.85100
C2618       C  0.62616213  0.63343179  0.58720546    -0.55100
C2619       C  0.64622245  0.65484647  0.60657235     0.08100
C2620       C  0.64069525  0.64976322  0.64544501     0.19000
C2621       C  0.62711057  0.59069970  0.63023870    -0.55800
C2622       C  0.64724520  0.61046240  0.65131648     0.08200
C2623       C  0.58463769  0.63318982  0.62868103    -0.55400
C2624       C  0.60237872  0.65457240  0.65039995     0.08700
H2625       H  0.62647250  0.63307369  0.56023223     0.13300
H2626       H  0.65615119  0.66651169  0.66219359    -0.01000
H2627       H  0.62769205  0.56320903  0.63056992     0.13600
H2628       H  0.55836974  0.63223708  0.62837574     0.13300
N2629       N  0.55668355  0.98350428  0.95111851    -0.07500
N2630       N  0.58210601  0.97671256  0.93356477    -0.59600
N2631       N  0.01899655  0.55388078  0.94036543    -0.07100
N2632       N  0.01585691  0.58102492  0.92187883    -0.61700
N2633       N  0.54845557  0.55386874  0.95993979    -0.06700
N2634       N  0.56470634  0.58185009  0.95474508    -0.59600
N2635       N  0.53000242  0.97857515  0.93194057    -0.06400
N2636       N  0.53715161  0.96781862  0.90205071    -0.62100
C2637       C  0.56958349  0.96705788  0.90300034     0.94700
C2638       C  0.54693619  0.59655933  0.93022996     0.94500
N2639       N  0.92791893  0.53017936  0.97084644    -0.07700
N2640       N  0.90013465  0.54854781  0.46831780    -0.60200
N2641       N  0.94996758  0.96337151  0.93350755    -0.05800
N2642       N  0.93972114  0.94312595  0.90779336    -0.61400
N2643       N  0.93296367  0.95736498  0.95954808    -0.07700
N2644       N  0.91143181  0.93286848  0.95207323    -0.60400
N2645       N  0.94612109  0.53643500  0.94595704    -0.05400
N2646       N  0.93358248  0.56019655  0.92702504    -0.61500
Mn2647     Mn  0.98812195  0.50672577  0.93709041     1.18400
C2648       C  0.90591050  0.56764034  0.94163677     0.96800
C2649       C  0.91561660  0.92362458  0.91966514     0.97500
N2650       N  0.56411787  0.55268929  0.54062530    -0.07700
N2651       N  0.58649463  0.57614964  0.54976179    -0.64000
N2652       N  0.55465857  0.96893779  0.55516774    -0.06500
N2653       N  0.56690841  0.94574647  0.57500111    -0.64700
N2654       N  0.57172780  0.97730267  0.03071201    -0.07200
N2655       N  0.59834142  0.95909999  0.03405693    -0.64300
N2656       N  0.54613530  0.54637953  0.56585269    -0.06100
N2657       N  0.55645154  0.56519036  0.59247908    -0.65000
Mn2658     Mn  0.56323429  0.51499960  0.99449583     1.10700
C2659       C  0.58153880  0.58449468  0.58233461     0.98000
C2660       C  0.59493447  0.93780808  0.56114921     0.98100
N2661       N  0.95296682  0.95364821  0.54007507    -0.07200
N2662       N  0.93610374  0.92658480  0.54703816    -0.62600
N2663       N  0.97155091  0.52994280  0.56928775    -0.06500
N2664       N  0.96521487  0.54107732  0.59927032    -0.59300
N2665       N  0.94449171  0.52531034  0.55069567    -0.07800
N2666       N  0.91949263  0.53274754  0.56864551    -0.62200
N2667       N  0.97930019  0.95672815  0.55995300    -0.06800
N2668       N  0.48189012  0.92724748  0.57694348    -0.59300
Mn2669     Mn  0.93752107  0.99278597  0.50618207     1.20200
Mn2670     Mn  0.51273884  0.00019392  0.56238232     1.10100
Cl2671     Cl  0.00154860  0.50324659  0.99920203    -0.87300
C2672       C  0.95414831  0.91248927  0.57175101     0.95000
C2673       C  0.93282633  0.54266948  0.59875194     0.94800
N2674       N  0.79496466  0.69299059  0.99194130    -0.07500
N2675       N  0.80093996  0.66606988  0.97343707    -0.59600
N2676       N  0.81169236  0.73595391  0.55660521    -0.07100
N2677       N  0.83765479  0.73293892  0.57659584    -0.61700
N2678       N  0.79040251  0.71206812  0.56307836    -0.06700
N2679       N  0.80179309  0.69291316  0.58725868    -0.59600
N2680       N  0.81527311  0.71766047  0.98562964    -0.06400
N2681       N  0.83545645  0.70762142  0.96307114    -0.62100
C2682       C  0.82592720  0.67549285  0.95541808     0.94700
C2683       C  0.83107325  0.70624714  0.59542070     0.94500
N2684       N  0.78243522  0.83278313  0.52493420    -0.07700
N2685       N  0.78056025  0.86142210  0.54202460    -0.60200
N2686       N  0.81651706  0.79546082  0.96038874    -0.05800
N2687       N  0.84245547  0.80397755  0.94360288    -0.61400
N2688       N  0.79109782  0.81256596  0.94924720    -0.07700
N2689       N  0.79953134  0.83276212  0.92487720    -0.60400
N2690       N  0.80680667  0.81443522  0.53610672    -0.05400
N2691       N  0.82220580  0.83042847  0.56181483    -0.61500
Mn2692     Mn  0.81287169  0.76465500  0.50951552     1.18400
C2693       C  0.80558399  0.86009934  0.56463595     0.96800
C2694       C  0.83177208  0.82706034  0.92061598     0.97500
N2695       N  0.71168046  0.69419413  0.56140544    -0.07700
N2696       N  0.70237272  0.67221065  0.58412304    -0.64000
N2697       N  0.69805927  0.69497586  0.97387041    -0.06500
N2698       N  0.68439382  0.67932488  0.94709177    -0.64700
N2699       N  0.72226927  0.67699184  0.98606596    -0.07200
N2700       N  0.72578270  0.64888714  0.96851339    -0.64300
N2701       N  0.68682568  0.71286405  0.55163183    -0.06100
N2702       N  0.66066630  0.70379374  0.56771047    -0.65000
Mn2703     Mn  0.75419013  0.69286883  0.52656317     1.10700
C2704       C  0.67035513  0.67894703  0.58921259     0.98000
C2705       C  0.70203875  0.65037118  0.94448383     0.98100
N2706       N  0.71283641  0.79603189  0.94555699    -0.07200
N2707       N  0.70134144  0.81564113  0.92177808    -0.62600
N2708       N  0.68948117  0.79217039  0.52954220    -0.06500
N2709       N  0.67034769  0.80205441  0.55314923    -0.59300
N2710       N  0.70958633  0.81687724  0.52269984    -0.07800
N2711       N  0.70442578  0.84361069  0.54176003    -0.62200
N2712       N  0.69140667  0.77235968  0.95202156    -0.06800
N2713       N  0.66524239  0.77592222  0.93238344    -0.59300
Mn2714     Mn  0.74805177  0.81566288  0.98261173     1.20200
Mn2715     Mn  0.68992761  0.74450137  0.99949134     1.10100
Cl2716     Cl  0.75131601  0.75365881  0.50643329    -0.87300
C2717       C  0.67172451  0.80295446  0.91397575     0.95000
C2718       C  0.68032708  0.83408998  0.56090028     0.94800
N2719       N  0.96839028  0.69126536  0.78404571    -0.07500
N2720       N  0.95694899  0.66479390  0.79945248    -0.59600
N2721       N  0.94577486  0.71937360  0.71270564    -0.07100
N2722       N  0.92143829  0.71256981  0.69143040    -0.61700
N2723       N  0.96857076  0.69625707  0.70956950    -0.06700
N2724       N  0.96004853  0.67329755  0.68639738    -0.59600
N2725       N  0.94863715  0.71712320  0.78797909    -0.06400
N2726       N  0.92487586  0.70913294  0.80662215    -0.62100
C2727       C  0.92981794  0.67649800  0.81371935     0.94700
C2728       C  0.93069303  0.68405878  0.67553381     0.94500
N2729       N  0.46254534  0.82377422  0.71791336    -0.07700
N2730       N  0.46209092  0.84210194  0.69107635    -0.60200
N2731       N  0.93977076  0.79709810  0.79553490    -0.05800
N2732       N  0.91522190  0.80253955  0.81527528    -0.61400
N2733       N  0.96034992  0.82263362  0.79810171    -0.07700
N2734       N  0.94927810  0.84625013  0.81942120    -0.60400
N2735       N  0.94103483  0.79902156  0.71786255    -0.05400
N2736       N  0.92285133  0.80275259  0.69017594    -0.61500
Mn2737     Mn  0.94355945  0.75790068  0.75358651     1.18400
C2738       C  0.93420313  0.83196297  0.67803525     0.96800
C2739       C  0.92087852  0.83335305  0.83062406     0.97500
N2740       N  0.54539541  0.69158486  0.70922715    -0.07700
N2741       N  0.55381734  0.66724037  0.68763945    -0.64000
N2742       N  0.56449592  0.71598962  0.79004668    -0.06500
N2743       N  0.58045595  0.71369871  0.81932255    -0.64700
N2744       N  0.04523922  0.69060567  0.78579312    -0.07200
N2745       N  0.04529593  0.67165207  0.81202089    -0.64300
N2746       N  0.56828827  0.71488247  0.71198483    -0.06100
N2747       N  0.59269760  0.70624234  0.69254698    -0.65000
Mn2748     Mn  0.00736760  0.69156368  0.74655438     1.10700
C2749       C  0.58356184  0.67619258  0.67679790     0.98000
C2750       C  0.56677254  0.68619470  0.83255428     0.98100
N2751       N  0.53819712  0.81887749  0.79638682    -0.07200
N2752       N  0.54693123  0.84213042  0.81925691    -0.62600
N2753       N  0.55922931  0.79735981  0.71863963    -0.06500
N2754       N  0.58397131  0.80659792  0.70190398    -0.59300
N2755       N  0.53911622  0.82306071  0.72256337    -0.07800
N2756       N  0.55109584  0.85029938  0.70905776    -0.62200
N2757       N  0.56121815  0.79588204  0.79324232    -0.06800
N2758       N  0.58579565  0.80321591  0.81406630    -0.59300
Mn2759     Mn  0.49937583  0.82351607  0.75871657     1.20200
Mn2760     Mn  0.56388858  0.75618869  0.75318982     1.10100
Cl2761     Cl  0.50272075  0.75829698  0.75238196    -0.87300
C2762       C  0.57671465  0.83196037  0.82958771     0.95000
C2763       C  0.57899595  0.83952931  0.69604501     0.94800
N2764       N  0.79078250  0.93939439  0.80336189    -0.07500
N2765       N  0.80010152  0.91171097  0.81960572    -0.59600
N2766       N  0.77123897  0.51611828  0.83458890    -0.07100
N2767       N  0.76661381  0.54303266  0.85366777    -0.61700
N2768       N  0.74588426  0.49601658  0.83376537    -0.06700
N2769       N  0.72326680  0.50938577  0.85231543    -0.59600
N2770       N  0.81531966  0.96070592  0.80308202    -0.06400
N2771       N  0.84146367  0.94761451  0.81916857    -0.62100
C2772       C  0.83212359  0.91634777  0.82909031     0.94700
C2773       C  0.73686042  0.53862214  0.86484737     0.94500
N2774       N  0.77871035  0.58675538  0.76078264    -0.07700
N2775       N  0.79052841  0.61806335  0.76308859    -0.60200
N2776       N  0.83147153  0.02052012  0.74865513    -0.05800
N2777       N  0.86278852  0.01522807  0.74463610    -0.61400
N2778       N  0.81820587  0.03485143  0.72189670    -0.07700
N2779       N  0.83963879  0.03919997  0.69958773    -0.60400
N2780       N  0.78761369  0.57098141  0.78842028    -0.05400
N2781       N  0.80163611  0.59203957  0.81030738    -0.61500
Mn2782     Mn  0.80199345  0.51751849  0.79277779     1.18400
C2783       C  0.80474173  0.62101590  0.79436953     0.96800
C2784       C  0.86703881  0.02711443  0.71374677     0.97500
N2785       N  0.68983828  0.47863990  0.78342856    -0.07700
N2786       N  0.66886562  0.47785728  0.80660168    -0.64000
N2787       N  0.71887792  0.94293516  0.71961580    -0.06500
N2788       N  0.70537841  0.92057034  0.69871662    -0.64700
N2789       N  0.72868261  0.92843302  0.74758160    -0.07200
N2790       N  0.71920660  0.89643251  0.74646094    -0.64300
N2791       N  0.67698592  0.49237216  0.75626692    -0.06100
N2792       N  0.64650154  0.50097772  0.76062124    -0.65000
Mn2793     Mn  0.73916397  0.95923980  0.79300602     1.10700
C2794       C  0.64230256  0.49174278  0.79231960     0.98000
C2795       C  0.70438365  0.89195770  0.71578275     0.98100
N2796       N  0.76171719  0.01699942  0.67188049    -0.07200
N2797       N  0.78422325  0.00317394  0.65343784    -0.62600
N2798       N  0.69213930  0.55031401  0.70303963    -0.06500
N2799       N  0.66504875  0.56055511  0.68710582    -0.59300
N2800       N  0.71462886  0.57395575  0.70267337    -0.07800
N2801       N  0.70254019  0.60068431  0.68599080    -0.62200
N2802       N  0.73632653  0.99693914  0.67159521    -0.06800
N2803       N  0.74069904  0.96988760  0.65265789    -0.59300
Mn2804     Mn  0.76751139  0.55631579  0.71412193     1.20200
Mn2805     Mn  0.70564157  0.99630798  0.71388307     1.10100
Cl2806     Cl  0.75374994  0.50740540  0.75239920    -0.87300
C2807       C  0.77049995  0.97380936  0.64127984     0.95000
C2808       C  0.67090827  0.59244834  0.67676259     0.94800
C2809       C  0.86315346  0.61729507  0.79016859    -0.27700
C2810       C  0.83675209  0.63661042  0.80058607    -0.15700
C2811       C  0.84246242  0.66315595  0.82408787     0.34900
C2812       C  0.87441039  0.67275706  0.83305254    -0.27100
C2813       C  0.90086694  0.65587736  0.81930230    -0.16400
C2814       C  0.89508449  0.62582405  0.80045064     0.36000
N2815       N  0.92153908  0.60485522  0.79081292    -0.90600
H2816       H  0.85865546  0.59471812  0.77468149     0.17100
H2817       H  0.87856308  0.69533535  0.84858881     0.17100
N2818       N  0.81638835  0.68119404  0.83843430    -0.89600
H2819       H  0.91277983  0.58300764  0.77807768     0.34500
H2820       H  0.93341010  0.59651206  0.81263118     0.39600
H2821       H  0.80238966  0.66390443  0.85089363     0.39200
H2822       H  0.80191765  0.69132630  0.81913414     0.34100
C2823       C  0.63268994  0.84750050  0.67503622    -0.27700
C2824       C  0.60792501  0.86064819  0.69421379    -0.15700
C2825       C  0.61581135  0.88385134  0.72049205     0.34900
C2826       C  0.64827710  0.89009177  0.72972039    -0.27100
C2827       C  0.67312248  0.87511858  0.71190270    -0.16400
C2828       C  0.66532157  0.85472551  0.68358793     0.36000
N2829       N  0.69060305  0.84155590  0.66381913    -0.90600
H2830       H  0.62660766  0.82951522  0.65487189     0.17100
H2831       H  0.65410802  0.90828547  0.74981732     0.17100
N2832       N  0.59101897  0.90037999  0.73841536    -0.89600
H2833       H  0.68070521  0.82687137  0.64364390     0.34500
H2834       H  0.70452291  0.82529692  0.67860382     0.39600
H2835       H  0.59409082  0.89432419  0.76343850     0.39200
H2836       H  0.59420854  0.92659372  0.73649063     0.34100
C2837       C  0.77843700  0.91182120  0.63594061    -0.27700
C2838       C  0.78795463  0.94442531  0.62680274    -0.15700
C2839       C  0.81131215  0.94728619  0.60259702     0.34900
C2840       C  0.82111675  0.91800843  0.58511902    -0.27100
C2841       C  0.80862897  0.88582417  0.59192422    -0.16400
C2842       C  0.78847908  0.88261893  0.61880757     0.36000
N2843       N  0.77561103  0.84997677  0.62634728    -0.90600
H2844       H  0.76150165  0.90910204  0.65539072     0.17100
H2845       H  0.83637121  0.92076770  0.56423092     0.17100
N2846       N  0.82369286  0.97953836  0.59368846    -0.89600
H2847       H  0.76010816  0.85201691  0.64600554     0.34500
H2848       H  0.79507629  0.83495272  0.63458630     0.39600
H2849       H  0.83507701  0.99092147  0.61492189     0.39200
H2850       H  0.80422170  0.99472813  0.58582045     0.34100
C2851       C  0.69135058  0.59121406  0.92711726    -0.27700
C2852       C  0.69932836  0.62417427  0.91774077    -0.15700
C2853       C  0.71480866  0.62857825  0.88759362     0.34900
C2854       C  0.72462658  0.59991756  0.86954126    -0.27100
C2855       C  0.71941044  0.56694026  0.88071348    -0.16400
C2856       C  0.70117120  0.56246879  0.90881462     0.36000
N2857       N  0.69480590  0.52896226  0.92006682    -0.90600
H2858       H  0.67999185  0.58782752  0.95050373     0.17100
H2859       H  0.73809247  0.60355050  0.84746634     0.17100
N2860       N  0.72343858  0.66142578  0.87601133    -0.89600
H2861       H  0.68110965  0.53010101  0.94120936     0.34500
H2862       H  0.71701263  0.51813947  0.92737991     0.39600
H2863       H  0.71481525  0.68083917  0.89127943     0.39200
H2864       H  0.71168876  0.66431593  0.85267840     0.34100
C2865       C  0.59023917  0.83766540  0.88737214    -0.27700
C2866       C  0.59719189  0.84789525  0.85562077    -0.15700
C2867       C  0.62961681  0.85380253  0.84801820     0.34900
C2868       C  0.65437809  0.84110406  0.86884769    -0.27100
C2869       C  0.64661931  0.82269392  0.89665693    -0.16400
C2870       C  0.61473052  0.82345556  0.90757136     0.36000
N2871       N  0.60681462  0.80821563  0.93807617    -0.90600
H2872       H  0.56526884  0.83439866  0.89376490     0.17100
H2873       H  0.67921283  0.84271584  0.86158113     0.17100
N2874       N  0.63766059  0.86860661  0.81731585    -0.89600
H2875       H  0.58957404  0.78920766  0.93248667     0.34500
H2876       H  0.59624964  0.82670585  0.95303257     0.39600
H2877       H  0.62715917  0.89262508  0.81630574     0.39200
H2878       H  0.62777174  0.85379819  0.79740428     0.34100
C2879       C  0.88692497  0.68540526  0.59897781    -0.27700
C2880       C  0.85641879  0.68712505  0.61270095    -0.15700
C2881       C  0.85129269  0.67167187  0.64299541     0.34900
C2882       C  0.87813157  0.66084630  0.66215913    -0.27100
C2883       C  0.90931534  0.66664020  0.65137605    -0.16400
C2884       C  0.91367517  0.67421047  0.61814042     0.36000
N2885       N  0.94572212  0.67566621  0.60600344    -0.90600
H2886       H  0.89026013  0.69498530  0.57436605     0.17100
H2887       H  0.87487231  0.65421588  0.68776175     0.17100
N2888       N  0.81963046  0.67010143  0.65576427    -0.89600
H2889       H  0.94475823  0.68286311  0.58115417     0.34500
H2890       H  0.95500563  0.65103811  0.60636570     0.39600
H2891       H  0.82014102  0.68342010  0.67857998     0.39200
H2892       H  0.81450238  0.64471604  0.66025750     0.34100
C2893       C  0.89779110  0.62745820  0.92927788    -0.27700
C2894       C  0.88462688  0.59493815  0.93122920    -0.15700
C2895       C  0.85100452  0.58999616  0.92916622     0.34900
C2896       C  0.83098624  0.61828062  0.93131551    -0.27100
C2897       C  0.84458684  0.65073004  0.93665697    -0.16400
C2898       C  0.87784930  0.65574068  0.93224170     0.36000
N2899       N  0.89191907  0.68897275  0.93405744    -0.90600
H2900       H  0.92382198  0.63099135  0.92943089     0.17100
H2901       H  0.80511015  0.61457820  0.93278555     0.17100
N2902       N  0.83764365  0.55630053  0.92733091    -0.89600
H2903       H  0.90375821  0.69268090  0.91206075     0.34500
H2904       H  0.90932949  0.68988931  0.95383822     0.39600
H2905       H  0.84417849  0.54512148  0.90482032     0.39200
H2906       H  0.81233946  0.55714431  0.92635312     0.34100
C2907       C  0.64979920  0.91908987  0.57832756    -0.27700
C2908       C  0.61679954  0.91173753  0.57356638    -0.15700
C2909       C  0.60547362  0.87860060  0.57737146     0.34900
C2910       C  0.62775077  0.85221518  0.58018920    -0.27100
C2911       C  0.66090263  0.85903997  0.57860576    -0.16400
C2912       C  0.67206039  0.89289481  0.58242518     0.36000
N2913       N  0.70571578  0.90128149  0.58845458    -0.90600
H2914       H  0.65833832  0.94503442  0.57755775     0.17100
H2915       H  0.61883396  0.82635040  0.57898966     0.17100
N2916       N  0.57043175  0.87486318  0.07589182    -0.89600
H2917       H  0.71413960  0.91157657  0.56680001     0.34500
H2918       H  0.71925721  0.87964337  0.59387836     0.39600
H2919       H  0.56160546  0.88490519  0.09792496     0.39200
H2920       H  0.56625929  0.84874218  0.07616636     0.34100
C2921       C  0.60437007  0.50401139  0.86950739    -0.27700
C2922       C  0.58583594  0.97513813  0.87263864    -0.15700
C2923       C  0.57803482  0.95814633  0.84212288     0.34900
C2924       C  0.59264623  0.96843367  0.81332371    -0.27100
C2925       C  0.61346794  0.49512012  0.81108259    -0.16400
C2926       C  0.61653570  0.51571168  0.84020472     0.36000
N2927       N  0.63450463  0.54701310  0.84141274    -0.90600
H2928       H  0.60802492  0.51935276  0.89212044     0.17100
H2929       H  0.58958841  0.95296575  0.79080962     0.17100
N2930       N  0.55603970  0.93001577  0.84049409    -0.89600
H2931       H  0.61874107  0.56626345  0.84838187     0.34500
H2932       H  0.64163799  0.55302700  0.81768197     0.39600
H2933       H  0.56804815  0.90912604  0.83058884     0.39200
H2934       H  0.53673534  0.93585325  0.82385632     0.34100
C2935       C  0.92360167  0.56200723  0.65603409    -0.27700
C2936       C  0.91673469  0.53857069  0.62991069    -0.15700
C2937       C  0.91150377  0.00782373  0.64093828     0.34900
C2938       C  0.90004005  0.00153166  0.67233054    -0.27100
C2939       C  0.89652201  0.02809566  0.69545934    -0.16400
C2940       C  0.91114111  0.55731501  0.68725321     0.36000
N2941       N  0.91491169  0.58333698  0.71256339    -0.90600
H2942       H  0.93771532  0.58455690  0.65183682     0.17100
H2943       H  0.89063197  0.97657404  0.67722112     0.17100
N2944       N  0.91512788  0.98028940  0.61760452    -0.89600
H2945       H  0.90496346  0.60563031  0.70315631     0.34500
H2946       H  0.93969389  0.58748925  0.71753475     0.39600
H2947       H  0.89251667  0.96854190  0.61331070     0.39200
H2948       H  0.93101309  0.96280176  0.62851231     0.34100
C2949       C  0.95603820  0.83540556  0.62377356    -0.27700
C2950       C  0.92983094  0.84220186  0.64361274    -0.15700
C2951       C  0.90754260  0.86766655  0.63479678     0.34900
C2952       C  0.91396074  0.88838088  0.60800578    -0.27100
C2953       C  0.94291352  0.88462922  0.59151498    -0.16400
C2954       C  0.96321035  0.85693530  0.59809794     0.36000
N2955       N  0.99203013  0.85215007  0.58007308    -0.90600
H2956       H  0.97313130  0.81577052  0.63094118     0.17100
H2957       H  0.89801417  0.90931509  0.60208847     0.17100
N2958       N  0.38406092  0.86918673  0.64942720    -0.89600
H2959       H  0.98481783  0.84712545  0.55515660     0.34500
H2960       H  0.00469542  0.83081966  0.58840696     0.39600
H2961       H  0.36914393  0.84774389  0.64850605     0.39200
H2962       H  0.36993606  0.88914953  0.64018790     0.34100
C2963       C  0.58783303  0.62906552  0.90089650    -0.27700
C2964       C  0.55692090  0.62740734  0.91383913    -0.15700
C2965       C  0.02967218  0.65620876  0.90551676     0.34900
C2966       C  0.03896520  0.68021405  0.88282346    -0.27100
C2967       C  0.57008306  0.67615432  0.86724597    -0.16400
C2968       C  0.59460469  0.65346215  0.87726748     0.36000
N2969       N  0.62473522  0.65309841  0.86098102    -0.90600
H2970       H  0.60543558  0.60950934  0.90671680     0.14300
H2971       H  0.02107161  0.69787146  0.87296853     0.17100
N2972       N  0.99732301  0.65599036  0.91703802    -0.89600
H2973       H  0.63988620  0.63427763  0.87069124     0.34500
H2974       H  0.63637797  0.67628446  0.86668244     0.39600
H2975       H  0.99903343  0.66031039  0.94282720     0.39200
H2976       H  0.98384964  0.67597387  0.90695495     0.34100
loop_ 
_geom_bond_atom_site_label_1 
_geom_bond_atom_site_label_2 
_geom_bond_distance 
_geom_bond_site_symmetry_2 
_ccdc_geom_bond_type 
C1            C2   1.550       .  S
C1            C7   1.544       .  S
C1            C5   1.560       .  S
C1           C90   1.605       .  S
C2            H9   1.086       .  S
C2            C3   1.381       .  D
C3            C4   1.603       .  S
C3          C168   1.566       .  S
C4            C8   1.592       .  S
C4            C6   1.594       .  S
C4           H10   1.110       .  S
C5           H11   1.085       .  S
C5            C6   1.391       .  D
C6          C135   1.570       .  S
C7           H12   1.086       .  S
C7            C8   1.379       .  D
C8           C45   1.556       .  S
C13          C14   1.550       .  S
C13          C19   1.544       .  S
C13          C17   1.549       .  S
C13          C55   1.582       .  S
C14          H21   1.086       .  S
C14          C15   1.377       .  D
C15          C16   1.614       .  S
C15         C100   1.576       .  S
C16          C20   1.618       .  S
C16          C18   1.599       .  S
C16          H22   1.109       .  S
C17          H23   1.086       .  S
C17          C18   1.382       .  D
C18         C204   1.568       .  S
C19          H24   1.086       .  S
C19          C20   1.378       .  D
C20         C145   1.578       .  S
N25          N26   1.319       .  A
N25          N31   1.324       .  A
N25        Mn798   2.234       .  S
N26          C33   1.354       .  A
N27          N28   1.320       .  A
N27        N1517   1.321       .  A
N27         Mn43   2.250       .  S
N28        C1522   1.356       .  A
N29          N30   1.317       .  A
N29        N1515   1.321       .  A
N29         Mn54   2.166       .  S
N30          C34   1.346       .  A
N31          N32   1.315       .  A
N31       Mn2275   2.167   1_455  S
N32          C33   1.342       .  A
C33         C318   1.466       .  S
C34        N1516   1.355       .  A
C34         C360   1.465       .  S
N35          N41   1.310       .  A
N35         N408   1.317       .  A
N35       Mn1181   2.196   1_545  S
N36         N407   1.320       .  A
N36         C416   1.356       .  A
N37          N38   1.344       .  A
N37          N39   1.318       .  A
N37        Mn787   2.296       .  S
N38          C45   1.371       .  A
N39          N40   1.331       .  A
N39        Mn437   2.269       .  S
N40          C45   1.364       .  A
N41          N42   1.316       .  A
N41         Mn43   2.150       .  S
N42          C44   1.345       .  A
Mn43       N2263   2.162   1_545  S
Mn43        N781   2.309   1_545  S
Mn43        Cl67   2.539       .  S
C44         N408   1.356       .  A
C44         C290   1.456       .  S
N46          N47   1.336       .  A
N46          N52   1.315       .  A
N46        Mn426   2.274   1_554  S
N47          C55   1.367       .  A
N48          N49   1.311       .  A
N48         N422   1.313       .  A
N48         Mn66   2.144       .  S
N49          C56   1.342       .  A
N50          N51   1.317       .  A
N50         N420   1.311       .  A
N50        Mn798   2.185       .  S
N51         C428   1.353       .  A
N52          N53   1.335       .  A
N52        Mn810   2.269       .  S
N53          C55   1.367       .  A
Mn54        N769   2.237   1_545  S
Mn54        N418   2.288       .  S
Mn54        N794   2.194   1_545  S
Mn54      Cl1555   2.574   1_455  S
C56         N423   1.356       .  A
C56         C304   1.449       .  S
N57          N58   1.318       .  A
N57          N63   1.320       .  A
N57         Mn65   2.161       .  S
N58          C68   1.345       .  A
N59          N60   1.312       .  A
N59          N61   1.324       .  A
N59       Mn2298   2.166       .  S
N60          C69   1.339       .  A
N61          N62   1.321       .  A
N61        Mn809   2.240   1_545  S
N62          C69   1.356       .  A
N63        N1552   1.320       .  A
N63       Mn1554   2.249       .  S
N64        N1551   1.324       .  A
N64        C1556   1.357       .  A
Mn65       N1151   2.182   1_554  S
Mn65        N411   2.267   1_554  S
Mn65        N805   2.232       .  S
Mn65      Cl1183   2.569   1_554  S
Mn66        N796   2.281       .  S
Mn66       N2291   2.152   1_455  S
Mn66       N1551   2.260   1_455  S
Mn66      Cl2671   2.533   1_554  S
Cl67      Mn1542   2.571       .  S
Cl67      Mn1181   2.567   1_545  S
Cl67      Mn2670   2.535       .  S
C68        N1552   1.355       .  A
C68         C349   1.464       .  S
C69         C332   1.461       .  S
N70          N71   1.315       .  A
N70          N76   1.325       .  A
N70        Mn471   2.241       .  S
N71          C78   1.351       .  A
N72          N74   1.328       .  A
N72          N73   1.314       .  A
N72         Mn88   2.231       .  S
N73          C79   1.348       .  A
N74          N75   1.317       .  A
N74         Mn99   2.163       .  S
N75          C79   1.341       .  A
N76          N77   1.321       .  A
N76        Mn460   2.185       .  S
N77          C78   1.351       .  A
C78         C293   1.471       .  S
C79         C276   1.454       .  S
N80          N86   1.309       .  A
N80          N81   1.312       .  A
N80        Mn482   2.155   1_554  S
N81          C89   1.342       .  A
N82          N83   1.342       .  A
N82          N84   1.315       .  A
N82        Mn460   2.310       .  S
N83          C90   1.373       .  A
N84          N85   1.339       .  A
N84        Mn110   2.279       .  S
N85          C90   1.371       .  A
N86          N87   1.332       .  A
N86         Mn88   2.250       .  S
N87          C89   1.368       .  A
Mn88        N448   2.204   1_554  S
Mn88        N454   2.313   1_554  S
Mn88       Cl112   2.575       .  S
C89         C237   1.481       .  S
N91          N92   1.345       .  A
N91          N97   1.316       .  A
N91         Mn99   2.309       .  S
N92         C100   1.375       .  A
N93          N95   1.310       .  A
N93          N94   1.328       .  A
N93        Mn111   2.226       .  S
N94         C101   1.363       .  A
N95          N96   1.312       .  A
N95        Mn471   2.161       .  S
N96         C101   1.345       .  A
N97          N98   1.340       .  A
N97        Mn483   2.306   1_554  S
N98         C100   1.372       .  A
Mn99        N442   2.230   1_554  S
Mn99        N467   2.162   1_554  S
Mn99       Cl112   2.548       .  S
C101        C248   1.471       .  S
N102        N103   1.313       .  A
N102        N108   1.325       .  A
N102       Mn110   2.153       .  S
N103        C113   1.340       .  A
N104        N105   1.321       .  A
N104        N106   1.323       .  A
N104       Mn483   2.202   1_554  S
N105        C114   1.355       .  A
N106        N107   1.312       .  A
N106       Mn482   2.206   1_554  S
N107        C114   1.345       .  A
N108        N109   1.315       .  A
N108       Mn111   2.215       .  S
N109        C113   1.347       .  A
Mn110       N452   2.157       .  S
Mn110       N478   2.199       .  S
Mn110      Cl484   2.536       .  S
Mn111       N469   2.297       .  S
Mn111       N476   2.198       .  S
Mn111      Cl484   2.573       .  S
Cl112      Mn482   2.543   1_554  S
Cl112      Mn483   2.572   1_554  S
C113        C265   1.451       .  S
C114        C307   1.464       .  S
N115        N116   1.326       .  A
N115        N121   1.321       .  A
N115       Mn144   2.257       .  S
N116        C123   1.362       .  A
N117        N119   1.322       .  A
N117        N118   1.311       .  A
N117       Mn133   2.218       .  S
N118        C124   1.346       .  A
N119        N120   1.322       .  A
N119       Mn144   2.166       .  S
N120        C124   1.347       .  A
N121        N122   1.307       .  A
N121       Mn133   2.152       .  S
N122        C123   1.339       .  A
C123        C209   1.472       .  S
C124        C279   1.448       .  S
N125        N126   1.311       .  A
N125       N1619   1.310       .  A
N125       Mn155   2.166       .  S
N126       C1622   1.349       .  A
N127        N128   1.334       .  A
N127        N129   1.315       .  A
N127       Mn133   2.269       .  S
N128        C135   1.364       .  A
N129        N130   1.347       .  A
N129      Mn1643   2.320       .  S
N130        C135   1.377       .  A
N131        N132   1.322       .  A
N131       N1613   1.309       .  A
N131       Mn133   2.188       .  S
N132        C134   1.353       .  A
Mn133     Cl1645   2.515       .  S
C134       N1614   1.348       .  A
C134        C346   1.454       .  S
N136        N137   1.338       .  A
N136        N142   1.315       .  A
N136      Mn1632   2.307       .  S
N137        C145   1.374       .  A
N138        N139   1.325       .  A
N138       N1628   1.312       .  A
N138       Mn156   2.195       .  S
N139        C146   1.355       .  A
N140        N141   1.313       .  A
N140       N1626   1.312       .  A
N140       Mn144   2.191       .  S
N141       C1634   1.351       .  A
N142        N143   1.346       .  A
N142       Mn156   2.297       .  S
N143        C145   1.371       .  A
Mn144      N1624   2.306       .  S
Mn144     Cl1645   2.584       .  S
C146       N1629   1.345       .  A
C146        C363   1.458       .  S
N147        N148   1.320       .  A
N147        N153   1.324       .  A
N147       Mn155   2.157   1_455  S
N148        C158   1.345       .  A
N149        N150   1.311       .  A
N149        N151   1.325       .  A
N149       Mn156   2.161       .  S
N150        C159   1.341       .  A
N151        N152   1.324       .  A
N151       Mn155   2.276   1_455  S
N152        C159   1.361       .  A
N153        N154   1.309       .  A
N153       Mn156   2.217       .  S
N154        C158   1.345       .  A
Mn155      N1617   2.338       .  S
Mn155      Cl157   2.592   1_655  S
Mn156      Cl157   2.524       .  S
Cl157     Mn1621   2.514   1_455  S
Cl157     Mn1632   2.589       .  S
C158        C262   1.440       .  S
C159        C220   1.468       .  S
N160        N161   1.336       .  A
N160        N166   1.318       .  A
N160       Mn189   2.296       .  S
N161        C168   1.370       .  A
N162        N164   1.311   1_545  A
N162        N163   1.315       .  A
N162       Mn178   2.168       .  S
N163        C169   1.346       .  A
N164        N165   1.328   1_565  A
N164       Mn933   2.214       .  S
N165        C169   1.357       .  A
N166        N167   1.343       .  A
N166       Mn922   2.278       .  S
N167        C168   1.368       .  A
C169        C251   1.483       .  S
N170        N176   1.322       .  A
N170        N171   1.323       .  A
N170       Mn200   2.208       .  S
N171        C179   1.359       .  A
N172        N173   1.326       .  A
N172        N174   1.322       .  A
N172       Mn922   2.210       .  S
N173        C180   1.356       .  A
N174        N175   1.305       .  A
N174       Mn944   2.169       .  S
N175        C180   1.336       .  A
N176        N177   1.307       .  A
N176       Mn178   2.201       .  S
N177        C179   1.337       .  A
Mn178       N910   2.276   1_545  S
Mn178       N916   2.215       .  S
Mn178      Cl202   2.536       .  S
C179        C206   1.457       .  S
C180        C335   1.445       .  S
N181        N182   1.308       .  A
N181        N187   1.321       .  A
N181       Mn933   2.183       .  S
N182        C190   1.339       .  A
N183        N185   1.321       .  A
N183        N184   1.310       .  A
N183       Mn201   2.191       .  S
N184        C191   1.338       .  A
N185        N186   1.323       .  A
N185       Mn189   2.211       .  S
N186        C191   1.360       .  A
N187        N188   1.327   1_565  A
N187       Mn945   2.214       .  S
N188        C190   1.356   1_545  A
Mn189       N908   2.204       .  S
Mn189       N925   2.177       .  S
Mn189      Cl946   2.569       .  S
C190        C321   1.453       .  S
C191        C223   1.458       .  S
N192        N193   1.329       .  A
N192        N198   1.313       .  A
N192       Mn944   2.222       .  S
N193        C203   1.357       .  A
N194        N195   1.333       .  A
N194        N196   1.317       .  A
N194       Mn945   2.260   1_545  S
N195        C204   1.363       .  A
N196        N197   1.348       .  A
N196       Mn200   2.321       .  S
N197        C204   1.375       .  A
N198        N199   1.317       .  A
N198       Mn201   2.179       .  S
N199        C203   1.347       .  A
Mn200       N918   2.185       .  S
Mn200       N936   2.202       .  S
Mn200      Cl202   2.579       .  S
Mn201       N931   2.213       .  S
Mn201       N938   2.253       .  S
Mn201      Cl946   2.528       .  S
Cl202      Mn933   2.568   1_545  S
Cl202      Mn945   2.530   1_545  S
C203        C234   1.486       .  S
C205        C206   1.408       .  A
C205        C210   1.397       .  A
C205        H212   1.085       .  S
C206        C207   1.400       .  A
C207        C208   1.403       .  A
C207        N214   1.437       .  S
C208        C209   1.413       .  A
C208        H213   1.084       .  S
C209        C210   1.405       .  A
C210        N211   1.437       .  S
N211        H215   1.049       .  S
N211        H216   1.041       .  S
N214        H217   1.048       .  S
N214        H218   1.043       .  S
C219        C220   1.409       .  A
C219        C224   1.409       .  A
C219        H226   1.084       .  S
C220        C221   1.407       .  A
C221        C222   1.392       .  A
C221        N228   1.433       .  S
C222        C223   1.402       .  A
C222        H227   1.085       .  S
C223        C224   1.407       .  A
C224        N225   1.437       .  S
N225        H229   1.052       .  S
N225        H230   1.038       .  S
N228        H231   1.042       .  S
N228        H232   1.048       .  S
C233        C234   1.407       .  A
C233        C238   1.407       .  A
C233        H240   1.084       .  S
C234        C235   1.410       .  A
C235        C236   1.408       .  A
C235        N242   1.433       .  S
C236        C237   1.411       .  A
C236        H241   1.084       .  S
C237        C238   1.407       .  A
C238        N239   1.437       .  S
N239        H243   1.048       .  S
N239        H244   1.043       .  S
N242        H245   1.044       .  S
N242        H246   1.046       .  S
C247        C248   1.406       .  A
C247        C252   1.412       .  A
C247        H254   1.084       .  S
C248        C249   1.405       .  A
C249        C250   1.403       .  A
C249        N256   1.438       .  S
C250        C251   1.407       .  A
C250        H255   1.084       .  S
C251        C252   1.409       .  A
C252        N253   1.437       .  S
N253        H257   1.048       .  S
N253        H258   1.044       .  S
N256        H259   1.046       .  S
N256        H260   1.045       .  S
C261        C262   1.395       .  A
C261        C266   1.394       .  A
C261        H268   1.084       .  S
C262        C263   1.409       .  A
C263        C264   1.388       .  A
C263        N270   1.433       .  S
C264        C265   1.397       .  A
C264        H269   1.084       .  S
C265        C266   1.410       .  A
C266        N267   1.433       .  S
N267        H271   1.045       .  S
N267        H272   1.046       .  S
N270        H273   1.045       .  S
N270        H274   1.045       .  S
C275        C276   1.402       .  A
C275        C280   1.393       .  A
C275        H282   1.084       .  S
C276        C277   1.402       .  A
C277        C278   1.397       .  A
C277        N284   1.432       .  S
C278        C279   1.404       .  A
C278        H283   1.084       .  S
C279        C280   1.399       .  A
C280        N281   1.432       .  S
N281        H285   1.045       .  S
N281        H286   1.046       .  S
N284        H287   1.046       .  S
N284        H288   1.046       .  S
C289        C290   1.401       .  A
C289        C294   1.401       .  A
C289        H296   1.084       .  S
C290        C291   1.402       .  A
C291        C292   1.395       .  A
C291        N298   1.437       .  S
C292        C293   1.403       .  A
C292        H297   1.084       .  S
C293        C294   1.410       .  A
C294        N295   1.432       .  S
N295        H299   1.045       .  S
N295        H300   1.046       .  S
N298        H301   1.048       .  S
N298        H302   1.044       .  S
C303        C304   1.396       .  A
C303        C308   1.395       .  A
C303        H310   1.084       .  S
C304        C305   1.404       .  A
C305        C306   1.392       .  A
C305        N684   1.433       .  S
C306        C307   1.399       .  A
C306        H311   1.084       .  S
C307        C308   1.417       .  A
C308        N309   1.438       .  S
N309        H313   1.040       .  S
N309        H314   1.050       .  S
N312        C677   1.430       .  S
N312        H315   1.045       .  S
N312        H316   1.045       .  S
C317        C322   1.391       .  A
C317       C1062   1.402   1_545  A
C317        H324   1.084       .  S
C318        C319   1.407       .  A
C318       C1061   1.402       .  A
C319        C320   1.402       .  A
C319        N326   1.432       .  S
C320       C1065   1.401       .  A
C320        H325   1.083       .  S
C321        C322   1.410   1_565  A
C321       C1064   1.402       .  A
C322        N323   1.439       .  S
N323        H327   1.043       .  S
N323        H328   1.048       .  S
N326        H329   1.046       .  S
N326        H330   1.045       .  S
C331        C332   1.399       .  A
C331        C336   1.401       .  A
C331        H338   1.084       .  S
C332       C1077   1.410       .  A
C333        C334   1.395       .  A
C333       C1076   1.410       .  A
C333        N340   1.431       .  S
C334        C335   1.398       .  A
C334        H339   1.085       .  S
C335       C1080   1.404       .  A
C336       C1079   1.406       .  A
C336        N337   1.429       .  S
N337        H341   1.043       .  S
N337        H342   1.047       .  S
N340        H343   1.045       .  S
N340        H344   1.042       .  S
C345        C346   1.398       .  A
C345        C350   1.393       .  A
C345        H352   1.085       .  S
C346        C347   1.405       .  A
C347        C348   1.406       .  A
C347       N1842   1.437       .  S
C348        C349   1.405       .  A
C348        H353   1.081       .  S
C349        C350   1.400       .  A
C350        N351   1.428       .  S
N351        H355   1.045       .  S
N351        H356   1.044       .  S
N354       C1835   1.438       .  S
N354        H357   1.048       .  S
N354        H358   1.044       .  S
C359        C360   1.407       .  A
C359        C364   1.405       .  A
C359        H366   1.084       .  S
C360       C1849   1.405       .  A
C361        C362   1.396       .  A
C361       C1848   1.401       .  A
C361        N368   1.437       .  S
C362       C1851   1.402       .  A
C362        H367   1.084       .  S
C363        C364   1.403       .  A
C363       C1850   1.404       .  A
C364        N365   1.437       .  S
N365        H369   1.047       .  S
N365        H370   1.044       .  S
N368        H371   1.046       .  S
N368        H372   1.046       .  S
C373        C374   1.550       .  S
C373        C379   1.549       .  S
C373        C377   1.565       .  S
C373        C462   1.613       .  S
C374        H381   1.085       .  S
C374        C375   1.380       .  D
C375        C376   1.607       .  S
C375        C540   1.573       .  S
C376        C380   1.593       .  S
C376        C378   1.596       .  S
C376        H382   1.110       .  S
C377        H383   1.085       .  S
C377        C378   1.394       .  D
C378        C507   1.576       .  S
C379        H384   1.086       .  S
C379        C380   1.382       .  D
C380        C417   1.562       .  S
C385        C386   1.556       .  S
C385        C391   1.544       .  S
C385        C389   1.549       .  S
C385        C427   1.594       .  S
C386        H393   1.086       .  S
C386        C387   1.382       .  D
C387        C388   1.613       .  S
C387        C472   1.582       .  S
C388        C392   1.620       .  S
C388        C390   1.597       .  S
C388        H394   1.109       .  S
C389        H395   1.086       .  S
C389        C390   1.382       .  D
C390        C576   1.566       .  S
C391        H396   1.086       .  S
C391        C392   1.378       .  D
C392        C517   1.580       .  S
N397        N398   1.320       .  A
N397        N403   1.324       .  A
N397      Mn1170   2.239       .  S
N398        C405   1.355       .  A
N399       N1889   1.321       .  A
N399        N400   1.319       .  A
N399       Mn415   2.247       .  S
N400       C1894   1.355       .  A
N401       N1887   1.319       .  A
N401        N402   1.315       .  A
N401       Mn426   2.153       .  S
N402        C406   1.344       .  A
N403        N404   1.312       .  A
N403      Mn2647   2.154   1_455  S
N404        C405   1.338       .  A
C405        C690   1.461       .  S
C406       N1888   1.356       .  A
C406        C732   1.463       .  S
N407        N413   1.311       .  A
N407       Mn809   2.207   1_546  S
N409        N410   1.345       .  A
N409        N411   1.318       .  A
N409      Mn1159   2.310       .  S
N410        C417   1.374       .  A
N411        N412   1.332       .  A
N412        C417   1.364       .  A
N413        N414   1.318       .  A
N413       Mn415   2.166       .  S
N414        C416   1.347       .  A
Mn415      N2635   2.167   1_545  S
Mn415      N1153   2.301   1_545  S
Mn415      Cl439   2.541       .  S
C416        C662   1.464       .  S
N418        N419   1.339       .  A
N418        N424   1.316       .  A
N419        C427   1.370       .  A
N420        N421   1.315       .  A
N420       Mn438   2.156       .  S
N421        C428   1.345       .  A
N422        N423   1.320       .  A
N422      Mn1170   2.197   1_554  S
N424        N425   1.338       .  A
N424      Mn1182   2.285       .  S
N425        C427   1.369       .  A
Mn426      N1141   2.242   1_545  S
Mn426      N1166   2.193   1_546  S
Mn426     Cl1927   2.566   1_455  S
C428        C676   1.451       .  S
N429        N430   1.319       .  A
N429        N435   1.321       .  A
N429       Mn437   2.171       .  S
N430        C440   1.347       .  A
N431        N432   1.311       .  A
N431        N433   1.323       .  A
N431      Mn2670   2.158       .  S
N432        C441   1.339       .  A
N433        N434   1.321       .  A
N433      Mn1181   2.239   1_545  S
N434        C441   1.355       .  A
N435       N1924   1.322       .  A
N435      Mn1926   2.255       .  S
N436       N1923   1.321       .  A
N436       C1928   1.355       .  A
Mn437       N779   2.198       .  S
Mn437      N1177   2.241       .  S
Mn437      Cl811   2.572       .  S
Mn438      N1168   2.287       .  S
Mn438      N2663   2.161   1_455  S
Mn438      N1923   2.241   1_455  S
Mn438     Cl2299   2.538       .  S
Cl439     Mn1914   2.573       .  S
Cl439      Mn809   2.569   1_546  S
Cl439     Mn2298   2.537   1_556  S
C440       N1924   1.356       .  A
C440        C721   1.468       .  S
C441        C704   1.458       .  S
N442        N443   1.317       .  A
N442        N448   1.325       .  A
N443        C450   1.350       .  A
N444        N446   1.326       .  A
N444        N445   1.314       .  A
N444       Mn460   2.216       .  S
N445        C451   1.347       .  A
N446        N447   1.312       .  A
N446       Mn471   2.159       .  S
N447        C451   1.340       .  A
N448        N449   1.321       .  A
N449        C450   1.353       .  A
C450        C665   1.475       .  S
C451        C648   1.449       .  S
N452        N458   1.308       .  A
N452        N453   1.311       .  A
N453        C461   1.343       .  A
N454        N455   1.344       .  A
N454        N456   1.315       .  A
N455        C462   1.374       .  A
N456        N457   1.340       .  A
N456       Mn482   2.287       .  S
N457        C462   1.372       .  A
N458        N459   1.329       .  A
N458       Mn460   2.217       .  S
N459        C461   1.363       .  A
Mn460      Cl484   2.578       .  S
C461        C609   1.470       .  S
N463        N464   1.347       .  A
N463        N469   1.316       .  A
N463       Mn471   2.322       .  S
N464        C472   1.378       .  A
N465        N467   1.309       .  A
N465        N466   1.331       .  A
N465       Mn483   2.235       .  S
N466        C473   1.366       .  A
N467        N468   1.312       .  A
N468        C473   1.343       .  A
N469        N470   1.340       .  A
N470        C472   1.370       .  A
Mn471      Cl484   2.538       .  S
C473        C620   1.477       .  S
N474        N475   1.314       .  A
N474        N480   1.325       .  A
N474       Mn482   2.149       .  S
N475        C485   1.340       .  A
N476        N477   1.320       .  A
N476        N478   1.321       .  A
N477        C486   1.356       .  A
N478        N479   1.311       .  A
N479        C486   1.344       .  A
N480        N481   1.313       .  A
N480       Mn483   2.215       .  S
N481        C485   1.346       .  A
C485        C637   1.450       .  S
C486        C679   1.464       .  S
N487        N488   1.324       .  A
N487        N493   1.319       .  A
N487       Mn516   2.268       .  S
N488        C495   1.364       .  A
N489        N491   1.321       .  A
N489        N490   1.309       .  A
N489       Mn505   2.215       .  S
N490        C496   1.346       .  A
N491        N492   1.319       .  A
N491       Mn516   2.143       .  S
N492        C496   1.343       .  A
N493        N494   1.307       .  A
N493       Mn505   2.134       .  S
N494        C495   1.339       .  A
C495        C581   1.474       .  S
C496        C651   1.438       .  S
N497       N1991   1.309       .  A
N497        N498   1.311       .  A
N497       Mn527   2.156   1_655  S
N498       C1994   1.347       .  A
N499        N500   1.336       .  A
N499        N501   1.314       .  A
N499       Mn505   2.272       .  S
N500        C507   1.365       .  A
N501        N502   1.348       .  A
N501      Mn2015   2.327       .  S
N502        C507   1.379       .  A
N503       N1985   1.311       .  A
N503        N504   1.323       .  A
N503       Mn505   2.184       .  S
N504        C506   1.353       .  A
Mn505     Cl2017   2.519       .  S
C506       N1986   1.348       .  A
C506        C718   1.458       .  S
N508        N509   1.338       .  A
N508        N514   1.315       .  A
N508      Mn2004   2.307       .  S
N509        C517   1.374       .  A
N510       N2000   1.312       .  A
N510        N511   1.325       .  A
N510       Mn528   2.194       .  S
N511        C518   1.355       .  A
N512       N1998   1.311       .  A
N512        N513   1.309       .  A
N512       Mn516   2.155       .  S
N513       C2006   1.345       .  A
N514        N515   1.347       .  A
N514       Mn528   2.300       .  S
N515        C517   1.372       .  A
Mn516      N1996   2.314       .  S
Mn516     Cl2017   2.581       .  S
C518       N2001   1.346       .  A
C518        C735   1.459       .  S
N519        N520   1.318       .  A
N519        N525   1.324       .  A
N519       Mn527   2.147       .  S
N520        C530   1.342       .  A
N521        N522   1.309       .  A
N521        N523   1.324       .  A
N521       Mn528   2.156       .  S
N522        C531   1.341       .  A
N523        N524   1.322       .  A
N523       Mn527   2.259       .  S
N524        C531   1.359       .  A
N525        N526   1.312       .  A
N525       Mn528   2.227       .  S
N526        C530   1.347       .  A
Mn527      N1989   2.328   1_455  S
Mn527      Cl529   2.589       .  S
Mn528      Cl529   2.527       .  S
Cl529     Mn1993   2.514   1_455  S
Cl529     Mn2004   2.587       .  S
C530        C634   1.439       .  S
C531        C592   1.464       .  S
N532        N533   1.338       .  A
N532        N538   1.317       .  A
N532       Mn561   2.309       .  S
N533        C540   1.372       .  A
N534        N536   1.313   1_545  A
N534        N535   1.316       .  A
N534       Mn550   2.178       .  S
N535        C541   1.347       .  A
N536        N537   1.328   1_565  A
N536      Mn1305   2.209       .  S
N537        C541   1.356       .  A
N538        N539   1.345       .  A
N538      Mn1294   2.282       .  S
N539        C540   1.369       .  A
C541        C623   1.487       .  S
N542        N548   1.322       .  A
N542        N543   1.327       .  A
N542       Mn572   2.235       .  S
N543        C551   1.364       .  A
N544        N545   1.327       .  A
N544        N546   1.323       .  A
N544      Mn1294   2.217       .  S
N545        C552   1.356       .  A
N546        N547   1.306       .  A
N546      Mn1316   2.179       .  S
N547        C552   1.336       .  A
N548        N549   1.308       .  A
N548       Mn550   2.191       .  S
N549        C551   1.336       .  A
Mn550      N1282   2.268   1_545  S
Mn550      N1288   2.223       .  S
Mn550      Cl574   2.535       .  S
C551        C578   1.464       .  S
C552        C707   1.449       .  S
N553        N554   1.308       .  A
N553        N559   1.320       .  A
N553      Mn1305   2.179       .  S
N554        C562   1.339       .  A
N555        N557   1.323       .  A
N555        N556   1.309       .  A
N555       Mn573   2.196       .  S
N556        C563   1.338       .  A
N557        N558   1.322       .  A
N557       Mn561   2.209       .  S
N558        C563   1.359       .  A
N559        N560   1.326       .  A
N559      Mn1317   2.206       .  S
N560        C562   1.355       .  A
Mn561      N1280   2.214       .  S
Mn561      N1297   2.181       .  S
Mn561     Cl1318   2.570       .  S
C562        C693   1.452       .  S
C563        C595   1.456       .  S
N564        N565   1.328       .  A
N564        N570   1.312       .  A
N564      Mn1316   2.218       .  S
N565        C575   1.357       .  A
N566        N567   1.331       .  A
N566        N568   1.318       .  A
N566      Mn1317   2.257   1_545  S
N567        C576   1.362       .  A
N568        N569   1.348       .  A
N568       Mn572   2.323       .  S
N569        C576   1.376       .  A
N570        N571   1.315       .  A
N570       Mn573   2.161       .  S
N571        C575   1.345       .  A
Mn572      N1290   2.176       .  S
Mn572      N1308   2.224       .  S
Mn572      Cl574   2.578       .  S
Mn573      N1303   2.192       .  S
Mn573      N1310   2.258       .  S
Mn573     Cl1318   2.530       .  S
Cl574     Mn1305   2.569   1_545  S
Cl574     Mn1317   2.529   1_545  S
C575        C606   1.479       .  S
C577        C578   1.407       .  A
C577        C582   1.393       .  A
C577        H584   1.086       .  S
C578        C579   1.410       .  A
C579        C580   1.404       .  A
C579        N586   1.438       .  S
C580        C581   1.414       .  A
C580        H585   1.084       .  S
C581        C582   1.400       .  A
C582        N583   1.431       .  S
N583        H587   1.044       .  S
N583        H588   1.044       .  S
N586        H589   1.045       .  S
N586        H590   1.045       .  S
C591        C592   1.407       .  A
C591        C596   1.406       .  A
C591        H598   1.084       .  S
C592        C593   1.408       .  A
C593        C594   1.393       .  A
C593        N600   1.433       .  S
C594        C595   1.403       .  A
C594        H599   1.085       .  S
C595        C596   1.405       .  A
C596        N597   1.437       .  S
N597        H601   1.050       .  S
N597        H602   1.042       .  S
N600        H603   1.045       .  S
N600        H604   1.044       .  S
C605        C606   1.408       .  A
C605        C610   1.406       .  A
C605        H612   1.084       .  S
C606        C607   1.408       .  A
C607        C608   1.402       .  A
C607        N614   1.432       .  S
C608        C609   1.406       .  A
C608        H613   1.084       .  S
C609        C610   1.407       .  A
C610        N611   1.438       .  S
N611        H615   1.047       .  S
N611        H616   1.044       .  S
N614        H617   1.045       .  S
N614        H618   1.046       .  S
C619        C620   1.409       .  A
C619        C624   1.412       .  A
C619        H626   1.084       .  S
C620        C621   1.415       .  A
C621        C622   1.400       .  A
C621        N628   1.439       .  S
C622        C623   1.406       .  A
C622        H627   1.084       .  S
C623        C624   1.407       .  A
C624        N625   1.431       .  S
N625        H629   1.046       .  S
N625        H630   1.043       .  S
N628        H631   1.045       .  S
N628        H632   1.044       .  S
C633        C634   1.394       .  A
C633        C638   1.391       .  A
C633        H640   1.085       .  S
C634        C635   1.408       .  A
C635        C636   1.389       .  A
C635        N642   1.432       .  S
C636        C637   1.398       .  A
C636        H641   1.084       .  S
C637        C638   1.410       .  A
C638        N639   1.433       .  S
N639        H643   1.045       .  S
N639        H644   1.046       .  S
N642        H645   1.046       .  S
N642        H646   1.044       .  S
C647        C648   1.403       .  A
C647        C652   1.393       .  A
C647        H654   1.084       .  S
C648        C649   1.402       .  A
C649        C650   1.392       .  A
C649        N656   1.433       .  S
C650        C651   1.401       .  A
C650        H655   1.083       .  S
C651        C652   1.399       .  A
C652        N653   1.437       .  S
N653        H657   1.042       .  S
N653        H658   1.049       .  S
N656        H659   1.046       .  S
N656        H660   1.045       .  S
C661        C662   1.400       .  A
C661        C666   1.399       .  A
C661        H668   1.084       .  S
C662        C663   1.406       .  A
C663        C664   1.401       .  A
C663        N670   1.437       .  S
C664        C665   1.406       .  A
C664        H669   1.084       .  S
C665        C666   1.410       .  A
C666        N667   1.432       .  S
N667        H671   1.046       .  S
N667        H672   1.045       .  S
N670        H673   1.046       .  S
N670        H674   1.045       .  S
C675        C676   1.397       .  A
C675        C680   1.392       .  A
C675        H682   1.084       .  S
C676        C677   1.403       .  A
C677        C678   1.393       .  A
C678        C679   1.399       .  A
C678        H683   1.084       .  S
C679        C680   1.418       .  A
C680        N681   1.435       .  S
N681        H685   1.048       .  S
N681        H686   1.042       .  S
N684        H687   1.046       .  S
N684        H688   1.045       .  S
C689       C1434   1.401   1_545  A
C689        C694   1.392       .  A
C689        H696   1.084       .  S
C690       C1433   1.401       .  A
C690        C691   1.408       .  A
C691        C692   1.400       .  A
C691        N698   1.433       .  S
C692       C1437   1.400       .  A
C692        H697   1.081       .  S
C693       C1436   1.402       .  A
C693        C694   1.410   1_565  A
C694        N695   1.439       .  S
N695        H699   1.048       .  S
N695        H700   1.042       .  S
N698        H701   1.047       .  S
N698        H702   1.044       .  S
C703        C704   1.397       .  A
C703        C708   1.400       .  A
C703        H710   1.084       .  S
C704       C1449   1.411       .  A
C705       C1448   1.410       .  A
C705        C706   1.397       .  A
C705        N712   1.433       .  S
C706        C707   1.398       .  A
C706        H711   1.085       .  S
C707       C1452   1.406       .  A
C708       C1451   1.406       .  A
C708        N709   1.429       .  S
N709        H713   1.045       .  S
N709        H714   1.044       .  S
N712        H715   1.046       .  S
N712        H716   1.045       .  S
C717        C718   1.400       .  A
C717        C722   1.398       .  A
C717        H724   1.085       .  S
C718        C719   1.404       .  A
C719        C720   1.406       .  A
C719       N2214   1.436       .  S
C720        C721   1.404       .  A
C720        H725   1.083       .  S
C721        C722   1.403       .  A
C722        N723   1.429       .  S
N723        H727   1.044       .  S
N723        H728   1.045       .  S
N726       C2207   1.436       .  S
N726        H729   1.045       .  S
N726        H730   1.046       .  S
C731        C732   1.407       .  A
C731        C736   1.404       .  A
C731        H738   1.084       .  S
C732       C2221   1.404       .  A
C733       C2220   1.403       .  A
C733        C734   1.395       .  A
C733        N740   1.438       .  S
C734       C2223   1.403       .  A
C734        H739   1.085       .  S
C735       C2222   1.404       .  A
C735        C736   1.403       .  A
C736        N737   1.436       .  S
N737        H741   1.050       .  S
N737        H742   1.041       .  S
N740        H743   1.045       .  S
N740        H744   1.046       .  S
C745        C746   1.548       .  S
C745        C751   1.550       .  S
C745        C749   1.561       .  S
C745        C834   1.609       .  S
C746        H753   1.086       .  S
C746        C747   1.380       .  D
C747        C748   1.605       .  S
C747        C912   1.567       .  S
C748        C752   1.598       .  S
C748        C750   1.597       .  S
C748        H754   1.110       .  S
C749        H755   1.086       .  S
C749        C750   1.392       .  D
C750        C879   1.575       .  S
C751        H756   1.086       .  S
C751        C752   1.382       .  D
C752        C789   1.568       .  S
C757        C758   1.554       .  S
C757        C763   1.541       .  S
C757        C761   1.546       .  S
C757        C799   1.583       .  S
C758        H765   1.086       .  S
C758        C759   1.380       .  D
C759        C760   1.609       .  S
C759        C844   1.574       .  S
C760        C764   1.613       .  S
C760        C762   1.598       .  S
C760        H766   1.110       .  S
C761        H767   1.086       .  S
C761        C762   1.381       .  D
C762        C948   1.564       .  S
C763        H768   1.086       .  S
C763        C764   1.376       .  D
C764        C889   1.568       .  S
N769        N770   1.319       .  A
N769        N775   1.323       .  A
N770        C777   1.354       .  A
N771       N2261   1.320       .  A
N771        N772   1.319       .  A
N771       Mn787   2.247       .  S
N772       C2266   1.354       .  A
N773       N2259   1.321       .  A
N773        N774   1.316       .  A
N773       Mn798   2.152       .  S
N774        C778   1.343       .  A
N775        N776   1.315       .  A
N775      Mn1531   2.160   1_465  S
N776        C777   1.341       .  A
C777       C1062   1.465       .  S
C778       N2260   1.355       .  A
C778       C1104   1.459       .  S
N779        N785   1.312       .  A
N779       N1152   1.317       .  A
N780       N1151   1.314       .  A
N780       C1160   1.351       .  A
N781        N782   1.346       .  A
N781        N783   1.317       .  A
N782        C789   1.374       .  A
N783        N784   1.334       .  A
N783      Mn1181   2.283       .  S
N784        C789   1.367       .  A
N785        N786   1.314       .  A
N785       Mn787   2.148       .  S
N786        C788   1.344       .  A
Mn787      N1519   2.164       .  S
Mn787      Cl811   2.535       .  S
C788       N1152   1.355       .  A
C788       C1034   1.452       .  S
N790        N791   1.337       .  A
N790        N796   1.316       .  A
N790      Mn1170   2.273   1_554  S
N791        C799   1.366       .  A
N792       N1166   1.312       .  A
N792        N793   1.313       .  A
N792       Mn810   2.142   1_565  S
N793        C800   1.342       .  A
N794       N1164   1.311       .  A
N794        N795   1.318       .  A
N795       C1172   1.354       .  A
N796        N797   1.336       .  A
N797        C799   1.368       .  A
Mn798      N1162   2.280       .  S
Mn798     Cl2299   2.564       .  S
C800       N1167   1.355       .  A
C800       C1048   1.446       .  S
N801        N802   1.318       .  A
N801        N807   1.321       .  A
N801       Mn809   2.166       .  S
N802        C812   1.344       .  A
N803        N804   1.313       .  A
N803        N805   1.322       .  A
N803      Mn1554   2.154       .  S
N804        C813   1.339       .  A
N805        N806   1.321       .  A
N806        C813   1.354       .  A
N807       N2296   1.321       .  A
N807      Mn2298   2.249   1_565  S
N808       N2295   1.320       .  A
N808       C2300   1.354       .  A
Mn809      N1155   2.268   1_554  S
Mn810      N1547   2.155   1_455  S
Mn810      N2295   2.236   1_445  S
Mn810     Cl1927   2.526   1_454  S
Cl811     Mn2286   2.575       .  S
Cl811     Mn1926   2.531       .  S
C812       N2296   1.355       .  A
C812       C1093   1.463       .  S
C813       C1076   1.463       .  S
N814        N815   1.314       .  A
N814        N820   1.325       .  A
N814      Mn1215   2.228       .  S
N815        C822   1.348       .  A
N816        N818   1.327       .  A
N816        N817   1.315       .  A
N816       Mn832   2.224       .  S
N817        C823   1.347       .  A
N818        N819   1.316       .  A
N818       Mn843   2.166       .  S
N819        C823   1.341       .  A
N820        N821   1.321       .  A
N820      Mn1204   2.197       .  S
N821        C822   1.352       .  A
C822       C1037   1.469       .  S
C823       C1020   1.456       .  S
N824        N830   1.310       .  A
N824        N825   1.313       .  A
N824      Mn1226   2.165   1_554  S
N825        C833   1.344       .  A
N826        N827   1.343       .  A
N826        N828   1.316       .  A
N826      Mn1204   2.310       .  S
N827        C834   1.372       .  A
N828        N829   1.340       .  A
N828       Mn854   2.285       .  S
N829        C834   1.372       .  A
N830        N831   1.329       .  A
N830       Mn832   2.228       .  S
N831        C833   1.363       .  A
Mn832      N1192   2.200   1_554  S
Mn832      N1198   2.320   1_554  S
Mn832      Cl856   2.579       .  S
C833        C981   1.474       .  S
N835        N836   1.343       .  A
N835        N841   1.317       .  A
N835       Mn843   2.297       .  S
N836        C844   1.372       .  A
N837        N839   1.308       .  A
N837        N838   1.326       .  A
N837       Mn855   2.205       .  S
N838        C845   1.360       .  A
N839        N840   1.313       .  A
N839      Mn1215   2.167       .  S
N840        C845   1.346       .  A
N841        N842   1.341       .  A
N841      Mn1227   2.314       .  S
N842        C844   1.372       .  A
Mn843      N1186   2.222   1_554  S
Mn843      N1211   2.167   1_554  S
Mn843      Cl856   2.544       .  S
C845        C992   1.466       .  S
N846        N847   1.313       .  A
N846        N852   1.324       .  A
N846       Mn854   2.158       .  S
N847        C857   1.342       .  A
N848        N849   1.319       .  A
N848        N850   1.322       .  A
N848      Mn1227   2.189       .  S
N849        C858   1.354       .  A
N850        N851   1.312       .  A
N850      Mn1226   2.211   1_554  S
N851        C858   1.345       .  A
N852        N853   1.312       .  A
N852       Mn855   2.204       .  S
N853        C857   1.344       .  A
Mn854      N1196   2.160       .  S
Mn854      N1222   2.210       .  S
Mn854     Cl1228   2.546       .  S
Mn855      N1213   2.295       .  S
Mn855      N1220   2.183       .  S
Mn855     Cl1228   2.565       .  S
Cl856     Mn1226   2.543   1_554  S
Cl856     Mn1227   2.575       .  S
C857       C1009   1.452       .  S
C858       C1051   1.464       .  S
N859        N860   1.324       .  A
N859        N865   1.320       .  A
N859       Mn888   2.262       .  S
N860        C867   1.362       .  A
N861        N863   1.322       .  A
N861        N862   1.311       .  A
N861       Mn877   2.224       .  S
N862        C868   1.348       .  A
N863        N864   1.318       .  A
N863       Mn888   2.135       .  S
N864        C868   1.341       .  A
N865        N866   1.309       .  A
N865       Mn877   2.142       .  S
N866        C867   1.341       .  A
C867        C953   1.473       .  S
C868       C1023   1.439       .  S
N869       N2363   1.310       .  A
N869        N870   1.310       .  A
N869       Mn899   2.156       .  S
N870       C2366   1.345       .  A
N871        N872   1.335       .  A
N871        N873   1.316       .  A
N871       Mn877   2.276       .  S
N872        C879   1.365       .  A
N873        N874   1.348       .  A
N873      Mn2387   2.330       .  S
N874        C879   1.379       .  A
N875       N2357   1.310       .  A
N875        N876   1.323       .  A
N875       Mn877   2.183       .  S
N876        C878   1.353       .  A
Mn877     Cl2389   2.522       .  S
C878       N2358   1.348       .  A
C878       C1090   1.456       .  S
N880        N881   1.336       .  A
N880        N886   1.315       .  A
N880      Mn2376   2.305       .  S
N881        C889   1.374       .  A
N882       N2372   1.310       .  A
N882        N883   1.324       .  A
N882       Mn900   2.189       .  S
N883        C890   1.354       .  A
N884       N2370   1.311       .  A
N884        N885   1.308       .  A
N884       Mn888   2.150       .  S
N885       C2378   1.343       .  A
N886        N887   1.343       .  A
N886       Mn900   2.281       .  S
N887        C889   1.368       .  A
Mn888      N2368   2.310       .  S
Mn888     Cl2389   2.581       .  S
C890       N2373   1.345       .  A
C890       C1107   1.455       .  S
N891        N892   1.318       .  A
N891        N897   1.323       .  A
N891       Mn899   2.148   1_455  S
N892        C902   1.343       .  A
N893        N894   1.309       .  A
N893        N895   1.323       .  A
N893       Mn900   2.153       .  S
N894        C903   1.340       .  A
N895        N896   1.322       .  A
N895       Mn899   2.263   1_455  S
N896        C903   1.359       .  A
N897        N898   1.307       .  A
N897       Mn900   2.208       .  S
N898        C902   1.344       .  A
Mn899      N2361   2.339       .  S
Mn899      Cl901   2.589   1_655  S
Mn900      Cl901   2.521       .  S
Cl901     Mn2365   2.510   1_455  S
Cl901     Mn2376   2.582       .  S
C902       C1006   1.432       .  S
C903        C964   1.465       .  S
N904        N905   1.336       .  A
N904        N910   1.318       .  A
N904       Mn933   2.305       .  S
N905        C912   1.371       .  A
N906        N908   1.311       .  A
N906        N907   1.316       .  A
N906       Mn922   2.167       .  S
N907        C913   1.346       .  A
N908        N909   1.326       .  A
N909        C913   1.354       .  A
N910        N911   1.344       .  A
N911        C912   1.368       .  A
C913        C995   1.475       .  S
N914        N920   1.324       .  A
N914        N915   1.326       .  A
N914       Mn944   2.222       .  S
N915        C923   1.361       .  A
N916        N917   1.327       .  A
N916        N918   1.323       .  A
N917        C924   1.356       .  A
N918        N919   1.307       .  A
N919        C924   1.337       .  A
N920        N921   1.307       .  A
N920       Mn922   2.197       .  S
N921        C923   1.334       .  A
Mn922      Cl946   2.531       .  S
C923        C950   1.461       .  S
C924       C1079   1.451       .  S
N925        N926   1.306       .  A
N925        N931   1.321       .  A
N926        C934   1.337       .  A
N927        N929   1.322       .  A
N927        N928   1.310       .  A
N927       Mn945   2.196       .  S
N928        C935   1.339       .  A
N929        N930   1.323       .  A
N929       Mn933   2.218       .  S
N930        C935   1.361       .  A
N931        N932   1.327       .  A
N932        C934   1.357       .  A
C934       C1065   1.451       .  S
C935        C967   1.460       .  S
N936        N937   1.327       .  A
N936        N942   1.313   1_545  A
N937        C947   1.354   1_545  A
N938        N939   1.331       .  A
N938        N940   1.317       .  A
N939        C948   1.362       .  A
N940        N941   1.348       .  A
N940       Mn944   2.321       .  S
N941        C948   1.376       .  A
N942        N943   1.315       .  A
N942       Mn945   2.178       .  S
N943        C947   1.347       .  A
Mn944      Cl946   2.579       .  S
C947        C978   1.478       .  S
C949        C950   1.409       .  A
C949        C954   1.398       .  A
C949        H956   1.085       .  S
C950        C951   1.408       .  A
C951        C952   1.402       .  A
C951        N958   1.438       .  S
C952        C953   1.412       .  A
C952        H957   1.084       .  S
C953        C954   1.404       .  A
C954        N955   1.437       .  S
N955        H959   1.045       .  S
N955        H960   1.046       .  S
N958        H961   1.046       .  S
N958        H962   1.044       .  S
C963        C964   1.408       .  A
C963        C968   1.407       .  A
C963        H970   1.084       .  S
C964        C965   1.408       .  A
C965        C966   1.392       .  A
C965        N972   1.433       .  S
C966        C967   1.402       .  A
C966        H971   1.085       .  S
C967        C968   1.408       .  A
C968        N969   1.437       .  S
N969        H973   1.051       .  S
N969        H974   1.040       .  S
N972        H975   1.045       .  S
N972        H976   1.045       .  S
C977        C978   1.406       .  A
C977        C982   1.405       .  A
C977        H984   1.084       .  S
C978        C979   1.408       .  A
C979        C980   1.403       .  A
C979        N986   1.432       .  S
C980        C981   1.407       .  A
C980        H985   1.084       .  S
C981        C982   1.408       .  A
C982        N983   1.437       .  S
N983        H987   1.046       .  S
N983        H988   1.044       .  S
N986        H989   1.045   1_565  S
N986        H990   1.046       .  S
C991        C992   1.405       .  A
C991        C996   1.406       .  A
C991        H998   1.084       .  S
C992        C993   1.404       .  A
C993        C994   1.401       .  A
C993       N1000   1.433       .  S
C994        C995   1.406       .  A
C994        H999   1.084       .  S
C995        C996   1.404       .  A
C996        N997   1.431       .  S
N997       H1001   1.046       .  S
N997       H1002   1.045       .  S
N1000      H1003   1.044       .  S
N1000      H1004   1.047       .  S
C1005      C1006   1.393       .  A
C1005      C1010   1.391       .  A
C1005      H1012   1.085       .  S
C1006      C1007   1.408       .  A
C1007      C1008   1.387       .  A
C1007      N1014   1.433       .  S
C1008      C1009   1.398       .  A
C1008      H1013   1.084       .  S
C1009      C1010   1.413       .  A
C1010      N1011   1.434       .  S
N1011      H1015   1.046       .  S
N1011      H1016   1.046       .  S
N1014      H1017   1.047       .  S
N1014      H1018   1.043       .  S
C1019      C1020   1.404       .  A
C1019      C1024   1.392       .  A
C1019      H1026   1.084       .  S
C1020      C1021   1.405       .  A
C1021      C1022   1.396       .  A
C1021      N1028   1.432       .  S
C1022      C1023   1.400       .  A
C1022      H1027   1.084       .  S
C1023      C1024   1.396       .  A
C1024      N1025   1.433       .  S
N1025      H1029   1.045       .  S
N1025      H1030   1.046       .  S
N1028      H1031   1.046       .  S
N1028      H1032   1.046       .  S
C1033      C1034   1.399       .  A
C1033      C1038   1.397       .  A
C1033      H1040   1.084       .  S
C1034      C1035   1.402       .  A
C1035      C1036   1.396       .  A
C1035      N1042   1.438       .  S
C1036      C1037   1.405       .  A
C1036      H1041   1.084       .  S
C1037      C1038   1.410       .  A
C1038      N1039   1.432       .  S
N1039      H1043   1.045       .  S
N1039      H1044   1.047       .  S
N1042      H1045   1.045       .  S
N1042      H1046   1.046       .  S
C1047      C1048   1.394       .  A
C1047      C1052   1.391       .  A
C1047      H1054   1.084       .  S
C1048      C1049   1.401       .  A
C1049      C1050   1.394       .  A
C1049      N1428   1.432       .  S
C1050      C1051   1.402       .  A
C1050      H1055   1.084       .  S
C1051      C1052   1.418       .  A
C1052      N1053   1.434       .  S
N1053      H1057   1.047       .  S
N1053      H1058   1.041       .  S
N1056      C1421   1.438       .  S
N1056      H1059   1.046       .  S
N1056      H1060   1.045       .  S
C1061      C1066   1.392       .  A
C1061      H1068   1.084       .  S
C1062      C1063   1.409       .  A
C1063      C1064   1.406       .  A
C1063      N1070   1.438       .  S
C1064      H1069   1.083       .  S
C1065      C1066   1.412       .  A
C1066      N1067   1.439       .  S
N1067      H1071   1.045       .  S
N1067      H1072   1.046       .  S
N1070      H1073   1.047       .  S
N1070      H1074   1.045       .  S
C1075      C1076   1.402       .  A
C1075      C1080   1.400       .  A
C1075      H1082   1.084       .  S
C1077      C1078   1.397       .  A
C1077      N1084   1.432   1_545  S
C1078      C1079   1.398       .  A
C1078      H1083   1.085   1_545  S
C1080      N1081   1.431       .  S
N1081      H1085   1.049       .  S
N1081      H1086   1.042       .  S
N1084      H1087   1.045       .  S
N1084      H1088   1.044       .  S
C1089      C1090   1.401       .  A
C1089      C1094   1.397       .  A
C1089      H1096   1.085       .  S
C1090      C1091   1.406       .  A
C1091      C1092   1.403       .  A
C1091      N2586   1.437       .  S
C1092      C1093   1.403       .  A
C1092      H1097   1.082       .  S
C1093      C1094   1.401       .  A
C1094      N1095   1.431       .  S
N1095      H1099   1.047       .  S
N1095      H1100   1.044       .  S
N1098      C2579   1.437       .  S
N1098      H1101   1.042       .  S
N1098      H1102   1.049       .  S
C1103      C1104   1.404       .  A
C1103      C1108   1.403       .  A
C1103      H1110   1.084       .  S
C1104      C2593   1.402       .  A
C1105      C2592   1.403       .  A
C1105      C1106   1.396       .  A
C1105      N1112   1.439       .  S
C1106      C2595   1.404       .  A
C1106      H1111   1.085       .  S
C1107      C2594   1.403       .  A
C1107      C1108   1.404       .  A
C1108      N1109   1.437       .  S
N1109      H1113   1.046       .  S
N1109      H1114   1.045       .  S
N1112      H1115   1.045       .  S
N1112      H1116   1.046       .  S
C1117      C1118   1.550       .  S
C1117      C1123   1.548       .  S
C1117      C1121   1.570       .  S
C1117      C1206   1.620       .  S
C1118      H1125   1.085       .  S
C1118      C1119   1.381       .  D
C1119      C1120   1.597       .  S
C1119      C1284   1.561       .  S
C1120      C1124   1.591       .  S
C1120      C1122   1.590       .  S
C1120      H1126   1.110       .  S
C1121      H1127   1.085       .  S
C1121      C1122   1.397       .  D
C1122      C1251   1.575       .  S
C1123      H1128   1.086       .  S
C1123      C1124   1.382       .  D
C1124      C1161   1.558       .  S
C1129      C1130   1.554       .  S
C1129      C1135   1.546       .  S
C1129      C1133   1.546       .  S
C1129      C1171   1.589       .  S
C1130      H1137   1.086       .  S
C1130      C1131   1.381       .  D
C1131      C1132   1.613       .  S
C1131      C1216   1.579       .  S
C1132      C1136   1.620       .  S
C1132      C1134   1.597       .  S
C1132      H1138   1.109       .  S
C1133      H1139   1.086       .  S
C1133      C1134   1.380       .  D
C1134      C1320   1.565       .  S
C1135      H1140   1.086       .  S
C1135      C1136   1.380       .  D
C1136      C1261   1.581       .  S
N1141      N1142   1.320       .  A
N1141      N1147   1.324       .  A
N1142      C1149   1.354       .  A
N1143      N2633   1.322       .  A
N1143      N1144   1.322       .  A
N1143     Mn1159   2.262       .  S
N1144      C2638   1.357       .  A
N1145      N2631   1.320       .  A
N1145      N1146   1.316       .  A
N1145     Mn1170   2.157       .  S
N1146      C1150   1.344       .  A
N1147      N1148   1.315       .  A
N1147     Mn1903   2.158   1_465  S
N1148      C1149   1.340       .  A
C1149      C1434   1.465       .  S
C1150      N2632   1.356       .  A
C1150      C1476   1.464       .  S
N1151      N1157   1.312       .  A
N1153      N1154   1.344       .  A
N1153      N1155   1.317       .  A
N1154      C1161   1.373       .  A
N1155      N1156   1.330       .  A
N1156      C1161   1.364       .  A
N1157      N1158   1.319       .  A
N1157     Mn1159   2.169       .  S
N1158      C1160   1.350       .  A
Mn1159     N1891   2.170       .  S
Mn1159    Cl1183   2.544       .  S
C1160      C1406   1.456       .  S
N1162      N1163   1.337       .  A
N1162      N1168   1.316       .  A
N1163      C1171   1.368       .  A
N1164      N1165   1.315       .  A
N1164     Mn1182   2.157   1_565  S
N1165      C1172   1.346       .  A
N1166      N1167   1.317       .  A
N1168      N1169   1.338       .  A
N1169      C1171   1.369       .  A
Mn1170    Cl2671   2.571       .  S
C1172      C1420   1.452       .  S
N1173      N1174   1.317       .  A
N1173      N1179   1.321       .  A
N1173     Mn1181   2.161       .  S
N1174      C1184   1.344       .  A
N1175      N1176   1.312       .  A
N1175      N1177   1.322       .  A
N1175     Mn1926   2.155       .  S
N1176      C1185   1.338       .  A
N1177      N1178   1.322       .  A
N1178      C1185   1.356       .  A
N1179      N2668   1.321       .  A
N1179     Mn2670   2.254   1_565  S
N1180      N2667   1.320       .  A
N1180      C2672   1.354       .  A
Mn1182     N1919   2.157   1_455  S
Mn1182     N2667   2.245   1_445  S
Mn1182    Cl1555   2.533   1_455  S
Cl1183    Mn2658   2.574       .  S
Cl1183    Mn1554   2.538   1_556  S
C1184      N2668   1.355       .  A
C1184      C1465   1.461       .  S
C1185      C1448   1.462       .  S
N1186      N1187   1.314       .  A
N1186      N1192   1.324       .  A
N1187      C1194   1.348       .  A
N1188      N1190   1.327       .  A
N1188      N1189   1.315       .  A
N1188     Mn1204   2.221       .  S
N1189      C1195   1.348       .  A
N1190      N1191   1.313       .  A
N1190     Mn1215   2.163       .  S
N1191      C1195   1.340       .  A
N1192      N1193   1.321       .  A
N1193      C1194   1.353       .  A
C1194      C1409   1.472       .  S
C1195      C1392   1.451       .  S
N1196      N1202   1.309       .  A
N1196      N1197   1.313       .  A
N1197      C1205   1.344       .  A
N1198      N1199   1.345       .  A
N1198      N1200   1.315       .  A
N1199      C1206   1.375       .  A
N1200      N1201   1.342       .  A
N1200     Mn1226   2.297       .  S
N1201      C1206   1.374       .  A
N1202      N1203   1.329       .  A
N1202     Mn1204   2.229       .  S
N1203      C1205   1.364       .  A
Mn1204    Cl1228   2.570       .  S
C1205      C1353   1.475       .  S
N1207      N1208   1.346       .  A
N1207      N1213   1.315       .  A
N1207     Mn1215   2.317       .  S
N1208      C1216   1.377       .  A
N1209      N1211   1.309       .  A
N1209      N1210   1.327       .  A
N1209     Mn1227   2.213   1_556  S
N1210      C1217   1.362       .  A
N1211      N1212   1.313       .  A
N1212      C1217   1.345       .  A
N1213      N1214   1.340       .  A
N1214      C1216   1.370       .  A
Mn1215    Cl1228   2.546       .  S
C1217      C1364   1.469       .  S
N1218      N1219   1.315       .  A
N1218      N1224   1.327       .  A
N1218     Mn1226   2.159       .  S
N1219      C1229   1.340       .  A
N1220      N1221   1.317       .  A
N1220      N1222   1.321       .  A
N1221      C1230   1.352       .  A
N1222      N1223   1.314       .  A
N1223      C1230   1.347       .  A
N1224      N1225   1.316       .  A
N1224     Mn1227   2.229   1_556  S
N1225      C1229   1.347       .  A
C1229      C1381   1.457       .  S
C1230      C1423   1.463       .  S
N1231      N1232   1.324       .  A
N1231      N1237   1.319       .  A
N1231     Mn1260   2.265       .  S
N1232      C1239   1.364       .  A
N1233      N1235   1.321       .  A
N1233      N1234   1.310       .  A
N1233     Mn1249   2.213       .  S
N1234      C1240   1.347       .  A
N1235      N1236   1.318       .  A
N1235     Mn1260   2.140       .  S
N1236      C1240   1.343       .  A
N1237      N1238   1.307       .  A
N1237     Mn1249   2.129       .  S
N1238      C1239   1.338       .  A
C1239      C1325   1.474       .  S
C1240      C1395   1.437       .  S
N1241      N2735   1.309       .  A
N1241      N1242   1.310       .  A
N1241     Mn1271   2.153   1_655  S
N1242      C2738   1.347       .  A
N1243      N1244   1.335       .  A
N1243      N1245   1.313       .  A
N1243     Mn1249   2.262       .  S
N1244      C1251   1.364       .  A
N1245      N1246   1.348       .  A
N1245     Mn2759   2.331       .  S
N1246      C1251   1.380       .  A
N1247      N2729   1.311       .  A
N1247      N1248   1.322       .  A
N1247     Mn1249   2.181       .  S
N1248      C1250   1.351       .  A
Mn1249    Cl2761   2.522       .  S
C1250      N2730   1.349       .  A
C1250      C1462   1.456       .  S
N1252      N1253   1.338       .  A
N1252      N1258   1.314       .  A
N1252     Mn2748   2.305       .  S
N1253      C1261   1.374       .  A
N1254      N2744   1.312       .  A
N1254      N1255   1.325       .  A
N1254     Mn1272   2.194       .  S
N1255      C1262   1.356       .  A
N1256      N2742   1.311       .  A
N1256      N1257   1.310       .  A
N1256     Mn1260   2.159       .  S
N1257      C2750   1.346       .  A
N1258      N1259   1.347       .  A
N1258     Mn1272   2.302       .  S
N1259      C1261   1.373       .  A
Mn1260     N2740   2.312       .  S
Mn1260    Cl2761   2.579       .  S
C1262      N2745   1.345       .  A
C1262      C1479   1.457       .  S
N1263      N1264   1.318       .  A
N1263      N1269   1.324       .  A
N1263     Mn1271   2.141       .  S
N1264      C1274   1.341       .  A
N1265      N1266   1.308       .  A
N1265      N1267   1.324       .  A
N1265     Mn1272   2.147       .  S
N1266      C1275   1.338       .  A
N1267      N1268   1.324       .  A
N1267     Mn1271   2.278       .  S
N1268      C1275   1.363       .  A
N1269      N1270   1.313       .  A
N1269     Mn1272   2.236       .  S
N1270      C1274   1.349       .  A
Mn1271     N2733   2.334   1_455  S
Mn1271    Cl1273   2.589       .  S
Mn1272    Cl1273   2.530       .  S
Cl1273    Mn2737   2.517   1_455  S
Cl1273    Mn2748   2.585       .  S
C1274      C1378   1.440       .  S
C1275      C1336   1.469       .  S
N1276      N1277   1.335       .  A
N1276      N1282   1.318       .  A
N1276     Mn1305   2.297       .  S
N1277      C1284   1.369       .  A
N1278      N1280   1.312       .  A
N1278      N1279   1.316       .  A
N1278     Mn1294   2.175       .  S
N1279      C1285   1.347       .  A
N1280      N1281   1.328       .  A
N1281      C1285   1.357       .  A
N1282      N1283   1.342       .  A
N1283      C1284   1.366       .  A
C1285      C1367   1.485       .  S
N1286      N1292   1.323       .  A
N1286      N1287   1.326       .  A
N1286     Mn1316   2.225       .  S
N1287      C1295   1.362       .  A
N1288      N1289   1.328       .  A
N1288      N1290   1.323       .  A
N1289      C1296   1.357       .  A
N1290      N1291   1.306       .  A
N1291      C1296   1.336       .  A
N1292      N1293   1.308       .  A
N1292     Mn1294   2.197       .  S
N1293      C1295   1.336       .  A
Mn1294    Cl1318   2.537       .  S
C1295      C1322   1.462       .  S
C1296      C1451   1.450       .  S
N1297      N1298   1.306       .  A
N1297      N1303   1.320       .  A
N1298      C1306   1.339       .  A
N1299      N1301   1.321       .  A
N1299      N1300   1.310       .  A
N1299     Mn1317   2.196       .  S
N1300      C1307   1.339       .  A
N1301      N1302   1.324       .  A
N1301     Mn1305   2.217       .  S
N1302      C1307   1.361       .  A
N1303      N1304   1.325       .  A
N1304      C1306   1.353       .  A
C1306      C1437   1.445       .  S
C1307      C1339   1.459       .  S
N1308      N1309   1.329       .  A
N1308      N1314   1.312   1_545  A
N1309      C1319   1.358   1_545  A
N1310      N1311   1.331       .  A
N1310      N1312   1.318       .  A
N1311      C1320   1.362       .  A
N1312      N1313   1.348       .  A
N1312     Mn1316   2.325       .  S
N1313      C1320   1.376       .  A
N1314      N1315   1.316       .  A
N1314     Mn1317   2.167       .  S
N1315      C1319   1.346       .  A
Mn1316    Cl1318   2.579       .  S
C1319      C1350   1.484       .  S
C1321      C1322   1.408       .  A
C1321      C1326   1.396       .  A
C1321      H1328   1.085       .  S
C1322      C1323   1.408       .  A
C1323      C1324   1.403       .  A
C1323      N1330   1.438       .  S
C1324      C1325   1.414       .  A
C1324      H1329   1.084       .  S
C1325      C1326   1.404       .  A
C1326      N1327   1.437       .  S
N1327      H1331   1.046       .  S
N1327      H1332   1.044       .  S
N1330      H1333   1.046       .  S
N1330      H1334   1.044       .  S
C1335      C1336   1.412       .  A
C1335      C1340   1.409       .  A
C1335      H1342   1.084       .  S
C1336      C1337   1.407       .  A
C1337      C1338   1.392       .  A
C1337      N1344   1.433       .  S
C1338      C1339   1.402       .  A
C1338      H1343   1.085       .  S
C1339      C1340   1.406       .  A
C1340      N1341   1.437       .  S
N1341      H1345   1.052       .  S
N1341      H1346   1.040       .  S
N1344      H1347   1.046       .  S
N1344      H1348   1.045       .  S
C1349      C1350   1.408       .  A
C1349      C1354   1.406       .  A
C1349      H1356   1.084       .  S
C1350      C1351   1.410       .  A
C1351      C1352   1.406       .  A
C1351      N1358   1.432       .  S
C1352      C1353   1.407       .  A
C1352      H1357   1.084       .  S
C1353      C1354   1.406       .  A
C1354      N1355   1.437       .  S
N1355      H1359   1.046       .  S
N1355      H1360   1.045       .  S
N1358      H1361   1.045   1_565  S
N1358      H1362   1.046       .  S
C1363      C1364   1.405       .  A
C1363      C1368   1.412       .  A
C1363      H1370   1.084       .  S
C1364      C1365   1.405       .  A
C1365      C1366   1.403       .  A
C1365      N1372   1.438       .  S
C1366      C1367   1.408       .  A
C1366      H1371   1.084       .  S
C1367      C1368   1.410       .  A
C1368      N1369   1.437       .  S
N1369      H1373   1.048       .  S
N1369      H1374   1.044       .  S
N1372      H1375   1.042       .  S
N1372      H1376   1.049       .  S
C1377      C1378   1.393       .  A
C1377      C1382   1.392       .  A
C1377      H1384   1.085       .  S
C1378      C1379   1.406       .  A
C1379      C1380   1.391       .  A
C1379      N1386   1.433       .  S
C1380      C1381   1.402       .  A
C1380      H1385   1.084       .  S
C1381      C1382   1.412       .  A
C1382      N1383   1.433       .  S
N1383      H1387   1.046       .  S
N1383      H1388   1.046       .  S
N1386      H1389   1.046       .  S
N1386      H1390   1.045       .  S
C1391      C1392   1.403       .  A
C1391      C1396   1.391       .  A
C1391      H1398   1.084       .  S
C1392      C1393   1.405       .  A
C1393      C1394   1.394       .  A
C1393      N1400   1.433       .  S
C1394      C1395   1.400       .  A
C1394      H1399   1.084       .  S
C1395      C1396   1.396       .  A
C1396      N1397   1.433       .  S
N1397      H1401   1.045       .  S
N1397      H1402   1.046       .  S
N1400      H1403   1.045       .  S
N1400      H1404   1.046       .  S
C1405      C1406   1.399       .  A
C1405      C1410   1.400       .  A
C1405      H1412   1.084       .  S
C1406      C1407   1.405       .  A
C1407      C1408   1.396       .  A
C1407      N1414   1.439       .  S
C1408      C1409   1.405       .  A
C1408      H1413   1.084       .  S
C1409      C1410   1.410       .  A
C1410      N1411   1.432       .  S
N1411      H1415   1.046       .  S
N1411      H1416   1.046       .  S
N1414      H1417   1.045       .  S
N1414      H1418   1.046       .  S
C1419      C1420   1.397       .  A
C1419      C1424   1.392       .  A
C1419      H1426   1.084       .  S
C1420      C1421   1.405       .  A
C1421      C1422   1.396       .  A
C1422      C1423   1.403       .  A
C1422      H1427   1.083       .  S
C1423      C1424   1.415       .  A
C1424      N1425   1.435       .  S
N1425      H1429   1.043       .  S
N1425      H1430   1.045       .  S
N1428      H1431   1.044       .  S
N1428      H1432   1.047       .  S
C1433      C1438   1.390       .  A
C1433      H1440   1.084       .  S
C1434      C1435   1.409       .  A
C1435      C1436   1.405       .  A
C1435      N1442   1.437       .  S
C1436      H1441   1.083       .  S
C1437      C1438   1.410       .  A
C1438      N1439   1.440       .  S
N1439      H1443   1.048       .  S
N1439      H1444   1.042       .  S
N1442      H1445   1.042       .  S
N1442      H1446   1.049       .  S
C1447      C1448   1.401       .  A
C1447      C1452   1.401       .  A
C1447      H1454   1.084       .  S
C1449      C1450   1.397   1_545  A
C1449      N1456   1.433   1_545  S
C1450      C1451   1.398   1_565  A
C1450      H1455   1.085       .  S
C1452      N1453   1.432       .  S
N1453      H1457   1.044       .  S
N1453      H1458   1.047       .  S
N1456      H1459   1.047       .  S
N1456      H1460   1.044       .  S
C1461      C1462   1.400       .  A
C1461      C1466   1.397       .  A
C1461      H1468   1.084       .  S
C1462      C1463   1.405       .  A
C1463      C1464   1.403       .  A
C1463      N2958   1.437       .  S
C1464      C1465   1.403       .  A
C1464      H1469   1.083       .  S
C1465      C1466   1.400       .  A
C1466      N1467   1.430       .  S
N1467      H1471   1.049       .  S
N1467      H1472   1.039       .  S
N1470      C2951   1.437       .  S
N1470      H1473   1.047       .  S
N1470      H1474   1.045       .  S
C1475      C1476   1.406       .  A
C1475      C1480   1.404       .  A
C1475      H1482   1.084       .  S
C1476      C2965   1.404       .  A
C1477      C2964   1.404       .  A
C1477      C1478   1.398       .  A
C1477      N1484   1.437       .  S
C1478      C2967   1.402       .  A
C1478      H1483   1.085       .  S
C1479      C2966   1.404       .  A
C1479      C1480   1.404       .  A
C1480      N1481   1.437       .  S
N1481      H1485   1.048       .  S
N1481      H1486   1.043       .  S
N1484      H1487   1.043       .  S
N1484      H1488   1.048       .  S
C1489      C1490   1.553       .  S
C1489      C1495   1.545       .  S
C1489      C1493   1.566       .  S
C1489      C1578   1.616       .  S
C1490      H1497   1.085       .  S
C1490      C1491   1.383       .  D
C1491      C1492   1.602       .  S
C1491      C1656   1.570       .  S
C1492      C1496   1.587       .  S
C1492      C1494   1.594       .  S
C1492      H1498   1.110       .  S
C1493      H1499   1.085       .  S
C1493      C1494   1.395       .  D
C1494      C1623   1.576       .  S
C1495      H1500   1.086       .  S
C1495      C1496   1.380       .  D
C1496      C1533   1.550       .  S
C1501      C1502   1.555       .  S
C1501      C1507   1.544       .  S
C1501      C1505   1.549       .  S
C1501      C1543   1.591       .  S
C1502      H1509   1.086       .  S
C1502      C1503   1.380       .  D
C1503      C1504   1.616       .  S
C1503      C1588   1.583       .  S
C1504      C1508   1.616       .  S
C1504      C1506   1.596       .  S
C1504      H1510   1.109       .  S
C1505      H1511   1.086       .  S
C1505      C1506   1.382       .  D
C1506      C1692   1.565       .  S
C1507      H1512   1.086       .  S
C1507      C1508   1.379       .  D
C1508      C1633   1.575       .  S
N1513      N1514   1.321       .  A
N1513      N1519   1.325       .  A
N1513     Mn2286   2.245       .  S
N1514      C1521   1.354       .  A
N1515      N1516   1.320       .  A
N1515     Mn1531   2.242   1_455  S
N1517      N1518   1.314       .  A
N1517     Mn1542   2.140       .  S
N1518      C1522   1.341       .  A
N1519      N1520   1.314       .  A
N1520      C1521   1.340       .  A
C1521      C1806   1.466       .  S
C1522      C1848   1.455       .  S
N1523      N1529   1.312       .  A
N1523      N1896   1.319       .  A
N1523     Mn2669   2.202   1_545  S
N1524      N1895   1.317       .  A
N1524      C1904   1.355       .  A
N1525      N1526   1.342       .  A
N1525      N1527   1.317       .  A
N1525     Mn2275   2.291       .  S
N1526      C1533   1.371       .  A
N1527      N1528   1.329       .  A
N1527     Mn1925   2.257       .  S
N1528      C1533   1.362       .  A
N1529      N1530   1.315       .  A
N1529     Mn1531   2.152       .  S
N1530      C1532   1.344       .  A
Mn1531     N2269   2.287   1_545  S
Mn1531    Cl1555   2.539       .  S
C1532      N1896   1.356       .  A
C1532      C1778   1.453       .  S
N1534      N1535   1.337       .  A
N1534      N1540   1.315       .  A
N1534     Mn1914   2.277   1_554  S
N1535      C1543   1.367       .  A
N1536      N1910   1.312       .  A
N1536      N1537   1.314       .  A
N1536     Mn1554   2.147       .  S
N1537      C1544   1.343       .  A
N1538      N1908   1.311       .  A
N1538      N1539   1.317       .  A
N1538     Mn2286   2.183       .  S
N1539      C1916   1.353       .  A
N1540      N1541   1.339       .  A
N1540     Mn2298   2.288       .  S
N1541      C1543   1.371       .  A
Mn1542     N2257   2.238   1_545  S
Mn1542     N1906   2.286       .  S
Mn1542     N2282   2.189   1_545  S
C1544      N1911   1.357       .  A
C1544      C1792   1.456       .  S
N1545      N1546   1.319       .  A
N1545      N1551   1.321       .  A
N1545     Mn1553   2.173       .  S
N1546      C1556   1.345       .  A
N1547      N1548   1.312       .  A
N1547      N1549   1.321       .  A
N1548      C1557   1.339       .  A
N1549      N1550   1.321       .  A
N1549     Mn2297   2.235   1_545  S
N1550      C1557   1.356       .  A
Mn1553     N2639   2.198   1_554  S
Mn1553     N1899   2.270   1_554  S
Mn1553     N2293   2.234       .  S
Mn1553    Cl2671   2.566   1_654  S
Mn1554     N2284   2.283       .  S
Cl1555    Mn2669   2.575   1_545  S
C1556      C1837   1.470       .  S
C1557      C1820   1.459       .  S
N1558      N1559   1.316       .  A
N1558      N1564   1.323       .  A
N1558     Mn1959   2.231       .  S
N1559      C1566   1.350       .  A
N1560      N1562   1.326       .  A
N1560      N1561   1.312       .  A
N1560     Mn1576   2.216       .  S
N1561      C1567   1.346       .  A
N1562      N1563   1.315       .  A
N1562     Mn1587   2.160       .  S
N1563      C1567   1.341       .  A
N1564      N1565   1.318       .  A
N1564     Mn1948   2.183       .  S
N1565      C1566   1.350       .  A
C1566      C1781   1.468       .  S
C1567      C1764   1.447       .  S
N1568      N1574   1.308       .  A
N1568      N1569   1.314       .  A
N1568     Mn1970   2.167   1_554  S
N1569      C1577   1.346       .  A
N1570      N1571   1.344       .  A
N1570      N1572   1.316       .  A
N1570     Mn1948   2.320       .  S
N1571      C1578   1.375       .  A
N1572      N1573   1.341       .  A
N1572     Mn1598   2.291       .  S
N1573      C1578   1.373       .  A
N1574      N1575   1.328       .  A
N1574     Mn1576   2.214       .  S
N1575      C1577   1.362       .  A
Mn1576     N1936   2.182   1_554  S
Mn1576     N1942   2.311   1_554  S
Mn1576    Cl1600   2.576       .  S
C1577      C1725   1.472       .  S
N1579      N1580   1.346       .  A
N1579      N1585   1.315       .  A
N1579     Mn1587   2.303       .  S
N1580      C1588   1.375       .  A
N1581      N1583   1.309       .  A
N1581      N1582   1.329       .  A
N1581     Mn1599   2.225       .  S
N1582      C1589   1.364       .  A
N1583      N1584   1.310       .  A
N1583     Mn1959   2.147       .  S
N1584      C1589   1.342       .  A
N1585      N1586   1.343       .  A
N1585     Mn1971   2.322       .  S
N1586      C1588   1.374       .  A
Mn1587     N1930   2.219   1_554  S
Mn1587     N1955   2.164   1_554  S
Mn1587    Cl1600   2.549       .  S
C1589      C1736   1.468       .  S
N1590      N1591   1.314       .  A
N1590      N1596   1.326       .  A
N1590     Mn1598   2.151       .  S
N1591      C1601   1.339       .  A
N1592      N1593   1.319       .  A
N1592      N1594   1.325       .  A
N1592     Mn1971   2.193       .  S
N1593      C1602   1.352       .  A
N1594      N1595   1.314       .  A
N1594     Mn1970   2.223   1_554  S
N1595      C1602   1.348       .  A
N1596      N1597   1.314       .  A
N1596     Mn1599   2.220       .  S
N1597      C1601   1.347       .  A
Mn1598     N1940   2.160       .  S
Mn1598     N1966   2.215       .  S
Mn1598    Cl1972   2.539       .  S
Mn1599     N1957   2.312       .  S
Mn1599     N1964   2.193       .  S
Mn1599    Cl1972   2.574       .  S
Cl1600    Mn1970   2.543   1_554  S
Cl1600    Mn1971   2.572       .  S
C1601      C1753   1.448       .  S
C1602      C1795   1.466       .  S
N1603      N1604   1.325       .  A
N1603      N1609   1.320       .  A
N1603     Mn1632   2.265   1_655  S
N1604      C1611   1.363       .  A
N1605      N1607   1.321       .  A
N1605      N1606   1.309       .  A
N1605     Mn1621   2.216       .  S
N1606      C1612   1.346       .  A
N1607      N1608   1.318       .  A
N1607     Mn1632   2.139   1_655  S
N1608      C1612   1.343       .  A
N1609      N1610   1.308       .  A
N1609     Mn1621   2.146       .  S
N1610      C1611   1.339       .  A
C1611      C1697   1.475       .  S
C1612      C1767   1.437       .  S
N1613      N1614   1.311       .  A
N1613     Mn1643   2.158       .  S
N1615      N1616   1.335       .  A
N1615      N1617   1.315       .  A
N1615     Mn1621   2.267       .  S
N1616      C1623   1.364       .  A
N1617      N1618   1.349       .  A
N1618      C1623   1.380       .  A
N1619      N1620   1.322       .  A
N1619     Mn1621   2.186       .  S
N1620      C1622   1.354       .  A
C1622      C1834   1.456       .  S
N1624      N1625   1.336       .  A
N1624      N1630   1.316       .  A
N1625      C1633   1.373       .  A
N1626      N1627   1.323       .  A
N1626     Mn1644   2.183       .  S
N1627      C1634   1.351       .  A
N1628      N1629   1.308       .  A
N1628     Mn1632   2.158       .  S
N1630      N1631   1.345       .  A
N1630     Mn1644   2.295       .  S
N1631      C1633   1.371       .  A
C1634      C1851   1.458       .  S
N1635      N1636   1.318       .  A
N1635      N1641   1.324       .  A
N1635     Mn1643   2.149       .  S
N1636      C1646   1.342       .  A
N1637      N1638   1.311       .  A
N1637      N1639   1.322       .  A
N1637     Mn1644   2.155       .  S
N1638      C1647   1.342       .  A
N1639      N1640   1.322       .  A
N1639     Mn1643   2.260       .  S
N1640      C1647   1.359       .  A
N1641      N1642   1.311       .  A
N1641     Mn1644   2.231       .  S
N1642      C1646   1.348       .  A
Mn1643    Cl1645   2.589       .  S
Mn1644    Cl1645   2.531       .  S
C1646      C1750   1.441       .  S
C1647      C1708   1.468       .  S
N1648      N1649   1.336       .  A
N1648      N1654   1.318       .  A
N1648     Mn1677   2.299       .  S
N1649      C1656   1.369       .  A
N1650      N1652   1.312   1_545  A
N1650      N1651   1.318       .  A
N1650     Mn1666   2.177       .  S
N1651      C1657   1.347       .  A
N1652      N1653   1.326   1_565  A
N1652     Mn2421   2.210       .  S
N1653      C1657   1.355       .  A
N1654      N1655   1.345       .  A
N1654     Mn2410   2.292       .  S
N1655      C1656   1.371       .  A
C1657      C1739   1.481       .  S
N1658      N1664   1.322       .  A
N1658      N1659   1.326       .  A
N1658     Mn1688   2.227       .  S
N1659      C1667   1.363       .  A
N1660      N1661   1.327       .  A
N1660      N1662   1.323       .  A
N1660     Mn2410   2.216       .  S
N1661      C1668   1.357       .  A
N1662      N1663   1.305       .  A
N1662     Mn2432   2.176       .  S
N1663      C1668   1.335       .  A
N1664      N1665   1.308       .  A
N1664     Mn1666   2.202       .  S
N1665      C1667   1.337       .  A
Mn1666     N2398   2.294   1_545  S
Mn1666     N2404   2.227       .  S
Mn1666    Cl1690   2.536       .  S
C1667      C1694   1.462       .  S
C1668      C1823   1.447       .  S
N1669      N1670   1.306       .  A
N1669      N1675   1.320       .  A
N1669     Mn2421   2.181       .  S
N1670      C1678   1.340       .  A
N1671      N1673   1.321       .  A
N1671      N1672   1.310       .  A
N1671     Mn1689   2.192       .  S
N1672      C1679   1.337       .  A
N1673      N1674   1.325       .  A
N1673     Mn1677   2.225       .  S
N1674      C1679   1.362       .  A
N1675      N1676   1.324   1_565  A
N1675     Mn2433   2.190       .  S
N1676      C1678   1.352   1_545  A
Mn1677     N2396   2.213       .  S
Mn1677     N2413   2.175       .  S
Mn1677    Cl2434   2.565       .  S
C1678      C1809   1.444       .  S
C1679      C1711   1.461       .  S
N1680      N1681   1.328       .  A
N1680      N1686   1.313       .  A
N1680     Mn2432   2.215       .  S
N1681      C1691   1.356       .  A
N1682      N1683   1.331       .  A
N1682      N1684   1.317       .  A
N1682     Mn2433   2.257   1_545  S
N1683      C1692   1.362       .  A
N1684      N1685   1.348       .  A
N1684     Mn1688   2.316       .  S
N1685      C1692   1.376       .  A
N1686      N1687   1.315       .  A
N1686     Mn1689   2.169       .  S
N1687      C1691   1.345       .  A
Mn1688     N2406   2.168       .  S
Mn1688     N2424   2.218       .  S
Mn1688    Cl1690   2.576       .  S
Mn1689     N2419   2.207       .  S
Mn1689     N2426   2.258       .  S
Mn1689    Cl2434   2.533       .  S
Cl1690    Mn2421   2.568   1_545  S
Cl1690    Mn2433   2.529   1_545  S
C1691      C1722   1.483       .  S
C1693      C1694   1.408       .  A
C1693      C1698   1.397       .  A
C1693      H1700   1.085       .  S
C1694      C1695   1.410       .  A
C1695      C1696   1.403       .  A
C1695      N1702   1.438       .  S
C1696      C1697   1.413       .  A
C1696      H1701   1.084       .  S
C1697      C1698   1.404       .  A
C1698      N1699   1.437       .  S
N1699      H1703   1.045       .  S
N1699      H1704   1.045       .  S
N1702      H1705   1.043       .  S
N1702      H1706   1.047       .  S
C1707      C1708   1.409       .  A
C1707      C1712   1.409       .  A
C1707      H1714   1.084       .  S
C1708      C1709   1.406       .  A
C1709      C1710   1.392       .  A
C1709      N1716   1.433       .  S
C1710      C1711   1.402       .  A
C1710      H1715   1.085       .  S
C1711      C1712   1.408       .  A
C1712      N1713   1.437       .  S
N1713      H1717   1.052       .  S
N1713      H1718   1.040       .  S
N1716      H1719   1.044       .  S
N1716      H1720   1.047       .  S
C1721      C1722   1.407       .  A
C1721      C1726   1.404       .  A
C1721      H1728   1.084       .  S
C1722      C1723   1.410       .  A
C1723      C1724   1.405       .  A
C1723      N1730   1.432       .  S
C1724      C1725   1.407       .  A
C1724      H1729   1.084       .  S
C1725      C1726   1.406       .  A
C1726      N1727   1.438       .  S
N1727      H1731   1.045       .  S
N1727      H1732   1.046       .  S
N1730      H1733   1.046       .  S
N1730      H1734   1.045       .  S
C1735      C1736   1.406       .  A
C1735      C1740   1.407       .  A
C1735      H1742   1.084       .  S
C1736      C1737   1.404       .  A
C1737      C1738   1.404       .  A
C1737      N1744   1.433       .  S
C1738      C1739   1.407       .  A
C1738      H1743   1.084       .  S
C1739      C1740   1.405       .  A
C1740      N1741   1.431       .  S
N1741      H1745   1.044       .  S
N1741      H1746   1.047       .  S
N1744      H1747   1.048       .  S
N1744      H1748   1.044       .  S
C1749      C1750   1.395       .  A
C1749      C1754   1.393       .  A
C1749      H1756   1.084       .  S
C1750      C1751   1.410       .  A
C1751      C1752   1.388       .  A
C1751      N1758   1.434       .  S
C1752      C1753   1.396       .  A
C1752      H1757   1.084       .  S
C1753      C1754   1.408       .  A
C1754      N1755   1.433       .  S
N1755      H1759   1.045       .  S
N1755      H1760   1.046       .  S
N1758      H1761   1.040       .  S
N1758      H1762   1.049       .  S
C1763      C1764   1.404       .  A
C1763      C1768   1.392       .  A
C1763      H1770   1.084       .  S
C1764      C1765   1.400       .  A
C1765      C1766   1.392       .  A
C1765      N1772   1.432       .  S
C1766      C1767   1.401       .  A
C1766      H1771   1.083       .  S
C1767      C1768   1.398       .  A
C1768      N1769   1.437       .  S
N1769      H1773   1.045       .  S
N1769      H1774   1.046       .  S
N1772      H1775   1.045       .  S
N1772      H1776   1.046       .  S
C1777      C1778   1.397       .  A
C1777      C1782   1.395       .  A
C1777      H1784   1.084       .  S
C1778      C1779   1.403       .  A
C1779      C1780   1.399       .  A
C1779      N1786   1.437       .  S
C1780      C1781   1.405       .  A
C1780      H1785   1.084       .  S
C1781      C1782   1.410       .  A
C1782      N1783   1.432       .  S
N1783      H1787   1.045       .  S
N1783      H1788   1.046       .  S
N1786      H1789   1.046       .  S
N1786      H1790   1.046       .  S
C1791      C1792   1.397       .  A
C1791      C1796   1.395       .  A
C1791      H1798   1.084       .  S
C1792      C1793   1.406       .  A
C1793      C1794   1.397       .  A
C1793      N2172   1.434       .  S
C1794      C1795   1.399       .  A
C1794      H1799   1.084       .  S
C1795      C1796   1.414       .  A
C1796      N1797   1.437       .  S
N1797      H1801   1.046       .  S
N1797      H1802   1.045       .  S
N1800      C2165   1.436       .  S
N1800      H1803   1.045       .  S
N1800      H1804   1.045       .  S
C1805      C2550   1.403   1_545  A
C1805      C1810   1.392       .  A
C1805      H1812   1.084       .  S
C1806      C2549   1.403       .  A
C1806      C1807   1.407       .  A
C1807      C1808   1.403       .  A
C1807      N1814   1.432       .  S
C1808      C2553   1.402       .  A
C1808      H1813   1.083       .  S
C1809      C2552   1.400       .  A
C1809      C1810   1.407   1_565  A
C1810      N1811   1.438       .  S
N1811      H1815   1.044       .  S
N1811      H1816   1.048       .  S
N1814      H1817   1.039       .  S
N1814      H1818   1.050       .  S
C1819      C1820   1.397       .  A
C1819      C1824   1.400       .  A
C1819      H1826   1.084       .  S
C1820      C2565   1.410       .  A
C1821      C2564   1.408       .  A
C1821      C1822   1.397       .  A
C1821      N1828   1.430       .  S
C1822      C1823   1.397       .  A
C1822      H1827   1.085       .  S
C1823      C2568   1.407       .  A
C1824      C2567   1.408       .  A
C1824      N1825   1.430       .  S
N1825      H1829   1.045       .  S
N1825      H1830   1.044       .  S
N1828      H1831   1.043       .  S
N1828      H1832   1.046       .  S
C1833      C1834   1.401       .  A
C1833      C1838   1.397       .  A
C1833      H1840   1.085       .  S
C1834      C1835   1.405       .  A
C1835      C1836   1.405       .  A
C1836      C1837   1.406       .  A
C1836      H1841   1.080       .  S
C1837      C1838   1.402       .  A
C1838      N1839   1.431       .  S
N1839      H1843   1.046       .  S
N1839      H1844   1.044   1_655  S
N1842      H1845   1.047       .  S
N1842      H1846   1.044       .  S
C1847      C1848   1.404       .  A
C1847      C1852   1.402       .  A
C1847      H1854   1.084       .  S
C1849      C1850   1.397       .  A
C1849      N1856   1.438   1_455  S
C1850      H1855   1.085       .  S
C1851      C1852   1.405       .  A
C1852      N1853   1.436       .  S
N1853      H1857   1.047       .  S
N1853      H1858   1.044       .  S
N1856      H1859   1.046       .  S
N1856      H1860   1.045       .  S
C1861      C1862   1.551       .  S
C1861      C1867   1.547       .  S
C1861      C1865   1.568       .  S
C1861      C1950   1.618       .  S
C1862      H1869   1.085       .  S
C1862      C1863   1.381       .  D
C1863      C1864   1.603       .  S
C1863      C2028   1.570       .  S
C1864      C1868   1.592       .  S
C1864      C1866   1.597       .  S
C1864      H1870   1.110       .  S
C1865      H1871   1.085       .  S
C1865      C1866   1.396       .  D
C1866      C1995   1.579       .  S
C1867      H1872   1.086       .  S
C1867      C1868   1.381       .  D
C1868      C1905   1.559       .  S
C1873      C1874   1.559       .  S
C1873      C1879   1.548       .  S
C1873      C1877   1.548       .  S
C1873      C1915   1.602       .  S
C1874      H1881   1.086       .  S
C1874      C1875   1.384       .  D
C1875      C1876   1.612       .  S
C1875      C1960   1.582       .  S
C1876      C1880   1.619       .  S
C1876      C1878   1.599       .  S
C1876      H1882   1.110       .  S
C1877      H1883   1.086       .  S
C1877      C1878   1.383       .  D
C1878      C2064   1.569       .  S
C1879      H1884   1.086       .  S
C1879      C1880   1.381       .  D
C1880      C2005   1.583       .  S
N1885      N1886   1.322       .  A
N1885      N1891   1.327       .  A
N1885     Mn2658   2.254       .  S
N1886      C1893   1.356       .  A
N1887      N1888   1.320       .  A
N1887     Mn1903   2.242   1_455  S
N1889      N1890   1.316       .  A
N1889     Mn1914   2.153       .  S
N1890      C1894   1.344       .  A
N1891      N1892   1.314       .  A
N1892      C1893   1.339       .  A
C1893      C2178   1.467       .  S
C1894      C2220   1.460       .  S
N1895      N1901   1.311       .  A
N1895     Mn2297   2.190   1_546  S
N1897      N1898   1.344       .  A
N1897      N1899   1.317       .  A
N1897     Mn2647   2.299       .  S
N1898      C1905   1.372       .  A
N1899      N1900   1.331       .  A
N1900      C1905   1.364       .  A
N1901      N1902   1.314       .  A
N1901     Mn1903   2.147       .  S
N1902      C1904   1.343       .  A
Mn1903     N2641   2.290   1_545  S
Mn1903    Cl1927   2.532       .  S
C1904      C2150   1.450       .  S
N1906      N1907   1.340       .  A
N1906      N1912   1.315       .  A
N1907      C1915   1.369       .  A
N1908      N1909   1.312       .  A
N1908     Mn1926   2.144       .  S
N1909      C1916   1.343       .  A
N1910      N1911   1.320       .  A
N1910     Mn2658   2.211   1_554  S
N1912      N1913   1.341       .  A
N1912     Mn2670   2.302       .  S
N1913      C1915   1.373       .  A
Mn1914     N2629   2.238   1_545  S
Mn1914     N2654   2.196   1_546  S
C1916      C2164   1.448       .  S
N1917      N1918   1.316       .  A
N1917      N1923   1.319       .  A
N1917     Mn1925   2.159       .  S
N1918      C1928   1.344       .  A
N1919      N1920   1.313       .  A
N1919      N1921   1.324       .  A
N1920      C1929   1.337       .  A
N1921      N1922   1.324       .  A
N1921     Mn2669   2.264   1_545  S
N1922      C1929   1.360       .  A
Mn1925     N2267   2.196       .  S
Mn1925     N2665   2.233       .  S
Mn1925    Cl2299   2.560   1_655  S
Mn1926     N2656   2.290       .  S
Cl1927    Mn2297   2.566   1_546  S
C1928      C2209   1.460       .  S
C1929      C2192   1.466       .  S
N1930      N1931   1.314       .  A
N1930      N1936   1.323       .  A
N1931      C1938   1.349       .  A
N1932      N1934   1.327       .  A
N1932      N1933   1.316       .  A
N1932     Mn1948   2.233       .  S
N1933      C1939   1.349       .  A
N1934      N1935   1.312       .  A
N1934     Mn1959   2.150       .  S
N1935      C1939   1.337       .  A
N1936      N1937   1.318       .  A
N1937      C1938   1.350       .  A
C1938      C2153   1.465       .  S
C1939      C2136   1.444       .  S
N1940      N1946   1.309       .  A
N1940      N1941   1.312       .  A
N1941      C1949   1.344       .  A
N1942      N1943   1.344       .  A
N1942      N1944   1.315       .  A
N1943      C1950   1.374       .  A
N1944      N1945   1.342       .  A
N1944     Mn1970   2.306       .  S
N1945      C1950   1.375       .  A
N1946      N1947   1.330       .  A
N1946     Mn1948   2.225       .  S
N1947      C1949   1.364       .  A
Mn1948    Cl1972   2.579       .  S
C1949      C2097   1.474       .  S
N1951      N1952   1.345       .  A
N1951      N1957   1.315       .  A
N1951     Mn1959   2.304       .  S
N1952      C1960   1.375       .  A
N1953      N1955   1.310       .  A
N1953      N1954   1.330       .  A
N1953     Mn1971   2.235   1_556  S
N1954      C1961   1.365       .  A
N1955      N1956   1.313       .  A
N1956      C1961   1.344       .  A
N1957      N1958   1.342       .  A
N1958      C1960   1.373       .  A
Mn1959    Cl1972   2.541       .  S
C1961      C2108   1.476       .  S
N1962      N1963   1.315       .  A
N1962      N1968   1.328       .  A
N1962     Mn1970   2.156       .  S
N1963      C1973   1.338       .  A
N1964      N1965   1.318       .  A
N1964      N1966   1.323       .  A
N1965      C1974   1.354       .  A
N1966      N1967   1.313       .  A
N1967      C1974   1.347       .  A
N1968      N1969   1.316       .  A
N1968     Mn1971   2.230   1_556  S
N1969      C1973   1.347       .  A
C1973      C2125   1.452       .  S
C1974      C2167   1.464       .  S
N1975      N1976   1.326       .  A
N1975      N1981   1.321       .  A
N1975     Mn2004   2.267   1_655  S
N1976      C1983   1.363       .  A
N1977      N1979   1.322       .  A
N1977      N1978   1.308       .  A
N1977     Mn1993   2.216       .  S
N1978      C1984   1.346       .  A
N1979      N1980   1.320       .  A
N1979     Mn2004   2.149   1_655  S
N1980      C1984   1.344       .  A
N1981      N1982   1.308       .  A
N1981     Mn1993   2.148       .  S
N1982      C1983   1.340       .  A
C1983      C2069   1.474       .  S
C1984      C2139   1.444       .  S
N1985      N1986   1.312       .  A
N1985     Mn2015   2.172       .  S
N1987      N1988   1.337       .  A
N1987      N1989   1.315       .  A
N1987     Mn1993   2.280       .  S
N1988      C1995   1.366       .  A
N1989      N1990   1.348       .  A
N1990      C1995   1.379       .  A
N1991      N1992   1.323       .  A
N1991     Mn1993   2.190       .  S
N1992      C1994   1.354       .  A
C1994      C2206   1.456       .  S
N1996      N1997   1.339       .  A
N1996      N2002   1.316       .  A
N1997      C2005   1.375       .  A
N1998      N1999   1.324       .  A
N1998     Mn2016   2.192       .  S
N1999      C2006   1.354       .  A
N2000      N2001   1.308       .  A
N2000     Mn2004   2.164       .  S
N2002      N2003   1.347       .  A
N2002     Mn2016   2.307       .  S
N2003      C2005   1.373       .  A
C2006      C2223   1.456       .  S
N2007      N2008   1.320       .  A
N2007      N2013   1.325       .  A
N2007     Mn2015   2.161       .  S
N2008      C2018   1.344       .  A
N2009      N2010   1.309       .  A
N2009      N2011   1.323       .  A
N2009     Mn2016   2.158       .  S
N2010      C2019   1.341       .  A
N2011      N2012   1.322       .  A
N2011     Mn2015   2.253       .  S
N2012      C2019   1.358       .  A
N2013      N2014   1.312       .  A
N2013     Mn2016   2.236       .  S
N2014      C2018   1.348       .  A
Mn2015    Cl2017   2.586       .  S
Mn2016    Cl2017   2.527       .  S
C2018      C2122   1.448       .  S
C2019      C2080   1.465       .  S
N2020      N2021   1.336       .  A
N2020      N2026   1.319       .  A
N2020     Mn2049   2.305       .  S
N2021      C2028   1.370       .  A
N2022      N2024   1.311   1_545  A
N2022      N2023   1.317       .  A
N2022     Mn2038   2.189       .  S
N2023      C2029   1.348       .  A
N2024      N2025   1.329   1_565  A
N2024     Mn2793   2.201       .  S
N2025      C2029   1.356       .  A
N2026      N2027   1.345       .  A
N2026     Mn2782   2.286       .  S
N2027      C2028   1.370       .  A
C2029      C2111   1.489       .  S
N2030      N2036   1.323       .  A
N2030      N2031   1.325       .  A
N2030     Mn2060   2.225       .  S
N2031      C2039   1.362       .  A
N2032      N2033   1.326       .  A
N2032      N2034   1.322       .  A
N2032     Mn2782   2.214       .  S
N2033      C2040   1.357       .  A
N2034      N2035   1.304       .  A
N2034     Mn2804   2.162       .  S
N2035      C2040   1.335       .  A
N2036      N2037   1.306       .  A
N2036     Mn2038   2.186       .  S
N2037      C2039   1.333       .  A
Mn2038     N2770   2.271   1_545  S
Mn2038     N2776   2.233       .  S
Mn2038    Cl2062   2.530       .  S
C2039      C2066   1.457       .  S
C2040      C2195   1.444       .  S
N2041      N2042   1.307       .  A
N2041      N2047   1.320       .  A
N2041     Mn2793   2.177       .  S
N2042      C2050   1.338       .  A
N2043      N2045   1.322       .  A
N2043      N2044   1.310       .  A
N2043     Mn2061   2.190       .  S
N2044      C2051   1.337       .  A
N2045      N2046   1.324       .  A
N2045     Mn2049   2.220       .  S
N2046      C2051   1.360       .  A
N2047      N2048   1.327   1_565  A
N2047     Mn2805   2.212       .  S
N2048      C2050   1.356   1_545  A
Mn2049     N2768   2.215       .  S
Mn2049     N2785   2.174       .  S
Mn2049    Cl2806   2.566       .  S
C2050      C2181   1.452       .  S
C2051      C2083   1.460       .  S
N2052      N2053   1.329       .  A
N2052      N2058   1.314       .  A
N2052     Mn2804   2.229       .  S
N2053      C2063   1.358       .  A
N2054      N2055   1.331       .  A
N2054      N2056   1.317       .  A
N2054     Mn2805   2.250   1_545  S
N2055      C2064   1.361       .  A
N2056      N2057   1.349       .  A
N2056     Mn2060   2.333       .  S
N2057      C2064   1.378       .  A
N2058      N2059   1.317       .  A
N2058     Mn2061   2.171       .  S
N2059      C2063   1.345       .  A
Mn2060     N2778   2.179       .  S
Mn2060     N2796   2.218       .  S
Mn2060    Cl2062   2.574       .  S
Mn2061     N2791   2.199       .  S
Mn2061     N2798   2.248       .  S
Mn2061    Cl2806   2.527       .  S
Cl2062    Mn2793   2.568   1_545  S
Cl2062    Mn2805   2.527   1_545  S
C2063      C2094   1.485       .  S
C2065      C2066   1.409       .  A
C2065      C2070   1.398       .  A
C2065      H2072   1.085       .  S
C2066      C2067   1.396       .  A
C2067      C2068   1.401       .  A
C2067      N2074   1.432       .  S
C2068      C2069   1.414       .  A
C2068      H2073   1.083       .  S
C2069      C2070   1.405       .  A
C2070      N2071   1.437       .  S
N2071      H2075   1.046       .  S
N2071      H2076   1.046       .  S
N2074      H2077   1.044       .  S
N2074      H2078   1.047       .  S
C2079      C2080   1.407       .  A
C2079      C2084   1.406       .  A
C2079      H2086   1.084       .  S
C2080      C2081   1.408       .  A
C2081      C2082   1.394       .  A
C2081      N2088   1.433       .  S
C2082      C2083   1.403       .  A
C2082      H2087   1.085       .  S
C2083      C2084   1.406       .  A
C2084      N2085   1.437       .  S
N2085      H2089   1.051       .  S
N2085      H2090   1.040       .  S
N2088      H2091   1.047       .  S
N2088      H2092   1.043       .  S
C2093      C2094   1.408       .  A
C2093      C2098   1.404       .  A
C2093      H2100   1.084       .  S
C2094      C2095   1.410       .  A
C2095      C2096   1.406       .  A
C2095      N2102   1.432       .  S
C2096      C2097   1.408       .  A
C2096      H2101   1.084       .  S
C2097      C2098   1.404       .  A
C2098      N2099   1.433       .  S
N2099      H2103   1.046       .  S
N2099      H2104   1.045       .  S
N2102      H2105   1.043       .  S
N2102      H2106   1.047       .  S
C2107      C2108   1.408       .  A
C2107      C2112   1.412       .  A
C2107      H2114   1.084       .  S
C2108      C2109   1.407       .  A
C2109      C2110   1.404       .  A
C2109      N2116   1.437       .  S
C2110      C2111   1.407       .  A
C2110      H2115   1.084       .  S
C2111      C2112   1.408       .  A
C2112      N2113   1.431       .  S
N2113      H2117   1.043       .  S
N2113      H2118   1.045       .  S
N2116      H2119   1.043       .  S
N2116      H2120   1.049       .  S
C2121      C2122   1.396       .  A
C2121      C2126   1.395       .  A
C2121      H2128   1.084       .  S
C2122      C2123   1.411       .  A
C2123      C2124   1.389       .  A
C2123      N2130   1.433       .  S
C2124      C2125   1.396       .  A
C2124      H2129   1.084       .  S
C2125      C2126   1.408       .  A
C2126      N2127   1.433       .  S
N2127      H2131   1.045       .  S
N2127      H2132   1.046       .  S
N2130      H2133   1.042       .  S
N2130      H2134   1.047       .  S
C2135      C2136   1.403       .  A
C2135      C2140   1.393       .  A
C2135      H2142   1.084       .  S
C2136      C2137   1.399       .  A
C2137      C2138   1.392       .  A
C2137      N2144   1.433       .  S
C2138      C2139   1.403       .  A
C2138      H2143   1.084       .  S
C2139      C2140   1.397       .  A
C2140      N2141   1.432       .  S
N2141      H2145   1.045       .  S
N2141      H2146   1.046       .  S
N2144      H2147   1.045       .  S
N2144      H2148   1.046       .  S
C2149      C2150   1.399       .  A
C2149      C2154   1.396       .  A
C2149      H2156   1.084       .  S
C2150      C2151   1.402       .  A
C2151      C2152   1.395       .  A
C2151      N2158   1.437       .  S
C2152      C2153   1.404       .  A
C2152      H2157   1.084       .  S
C2153      C2154   1.408       .  A
C2154      N2155   1.432       .  S
N2155      H2159   1.045       .  S
N2155      H2160   1.045       .  S
N2158      H2161   1.045       .  S
N2158      H2162   1.046       .  S
C2163      C2164   1.396       .  A
C2163      C2168   1.393       .  A
C2163      H2170   1.084       .  S
C2164      C2165   1.405       .  A
C2165      C2166   1.395       .  A
C2166      C2167   1.400       .  A
C2166      H2171   1.083       .  S
C2167      C2168   1.415       .  A
C2168      N2169   1.437       .  S
N2169      H2173   1.041       .  S
N2169      H2174   1.050       .  S
N2172      H2175   1.044       .  S
N2172      H2176   1.046       .  S
C2177      C2922   1.401   1_545  A
C2177      C2182   1.394       .  A
C2177      H2184   1.083       .  S
C2178      C2921   1.403       .  A
C2178      C2179   1.408       .  A
C2179      C2180   1.401       .  A
C2179      N2186   1.432       .  S
C2180      C2925   1.400       .  A
C2180      H2185   1.082       .  S
C2181      C2924   1.401       .  A
C2181      C2182   1.411   1_565  A
C2182      N2183   1.438       .  S
N2183      H2187   1.044       .  S
N2183      H2188   1.046       .  S
N2186      H2189   1.043       .  S
N2186      H2190   1.046       .  S
C2191      C2192   1.400       .  A
C2191      C2196   1.405       .  A
C2191      H2198   1.084       .  S
C2192      C2937   1.410       .  A
C2193      C2936   1.414       .  A
C2193      C2194   1.398       .  A
C2193      N2200   1.439       .  S
C2194      C2195   1.398       .  A
C2194      H2199   1.085       .  S
C2195      C2940   1.404       .  A
C2196      C2939   1.409       .  A
C2196      N2197   1.431       .  S
N2197      H2201   1.050       .  S
N2197      H2202   1.039       .  S
N2200      H2203   1.046       .  S
N2200      H2204   1.044       .  S
C2205      C2206   1.401       .  A
C2205      C2210   1.396       .  A
C2205      H2212   1.085       .  S
C2206      C2207   1.405       .  A
C2207      C2208   1.404       .  A
C2208      C2209   1.403       .  A
C2208      H2213   1.083       .  S
C2209      C2210   1.400       .  A
C2210      N2211   1.430       .  S
N2211      H2215   1.044       .  S
N2211      H2216   1.045   1_655  S
N2214      H2217   1.048       .  S
N2214      H2218   1.043       .  S
C2219      C2220   1.406       .  A
C2219      C2224   1.404       .  A
C2219      H2226   1.084       .  S
C2221      C2222   1.395       .  A
C2221      N2228   1.438   1_455  S
C2222      H2227   1.085       .  S
C2223      C2224   1.403       .  A
C2224      N2225   1.437       .  S
N2225      H2229   1.048       .  S
N2225      H2230   1.042       .  S
N2228      H2231   1.044       .  S
N2228      H2232   1.048       .  S
C2233      C2234   1.553       .  S
C2233      C2239   1.546       .  S
C2233      C2237   1.571       .  S
C2233      C2322   1.623       .  S
C2234      H2241   1.085       .  S
C2234      C2235   1.384       .  D
C2235      C2236   1.602       .  S
C2235      C2400   1.571       .  S
C2236      C2240   1.597       .  S
C2236      C2238   1.604       .  S
C2236      H2242   1.110       .  S
C2237      H2243   1.085       .  S
C2237      C2238   1.398       .  D
C2238      C2367   1.592       .  S
C2239      H2244   1.086       .  S
C2239      C2240   1.379       .  D
C2240      C2277   1.561       .  S
C2245      C2246   1.554       .  S
C2245      C2251   1.548       .  S
C2245      C2249   1.549       .  S
C2245      C2287   1.594       .  S
C2246      H2253   1.086       .  S
C2246      C2247   1.380       .  D
C2247      C2248   1.616       .  S
C2247      C2332   1.581       .  S
C2248      C2252   1.619       .  S
C2248      C2250   1.601       .  S
C2248      H2254   1.109       .  S
C2249      H2255   1.086       .  S
C2249      C2250   1.382       .  D
C2250      C2436   1.571       .  S
C2251      H2256   1.086       .  S
C2251      C2252   1.380       .  D
C2252      C2377   1.581       .  S
N2257      N2258   1.320       .  A
N2257      N2263   1.325       .  A
N2258      C2265   1.354       .  A
N2259      N2260   1.320       .  A
N2259     Mn2275   2.247   1_455  S
N2261      N2262   1.317       .  A
N2261     Mn2286   2.149       .  S
N2262      C2266   1.344       .  A
N2263      N2264   1.312       .  A
N2264      C2265   1.339       .  A
C2265      C2550   1.462       .  S
C2266      C2592   1.461       .  S
N2267      N2273   1.312       .  A
N2267      N2640   1.319       .  A
N2268      N2639   1.317       .  A
N2268      C2648   1.355       .  A
N2269      N2270   1.343       .  A
N2269      N2271   1.318       .  A
N2270      C2277   1.369       .  A
N2271      N2272   1.334       .  A
N2271     Mn2669   2.295       .  S
N2272      C2277   1.369       .  A
N2273      N2274   1.316       .  A
N2273     Mn2275   2.162       .  S
N2274      C2276   1.346       .  A
Mn2275    Cl2299   2.541   1_655  S
C2276      N2640   1.355       .  A
C2276      C2522   1.456       .  S
N2278      N2279   1.339       .  A
N2278      N2284   1.317       .  A
N2278     Mn2658   2.295   1_554  S
N2279      C2287   1.370       .  A
N2280      N2654   1.312       .  A
N2280      N2281   1.316       .  A
N2280     Mn2298   2.167   1_565  S
N2281      C2288   1.347       .  A
N2282      N2652   1.311       .  A
N2282      N2283   1.318       .  A
N2283      C2660   1.354       .  A
N2284      N2285   1.338       .  A
N2285      C2287   1.369       .  A
Mn2286     N2650   2.289       .  S
C2288      N2655   1.355       .  A
C2288      C2536   1.460       .  S
N2289      N2290   1.318       .  A
N2289      N2295   1.319       .  A
N2289     Mn2297   2.165       .  S
N2290      C2300   1.346       .  A
N2291      N2292   1.312       .  A
N2291      N2293   1.321       .  A
N2292      C2301   1.339       .  A
N2293      N2294   1.321       .  A
N2294      C2301   1.355       .  A
Mn2297     N2643   2.272   1_554  S
C2300      C2581   1.461       .  S
C2301      C2564   1.458       .  S
N2302      N2303   1.314       .  A
N2302      N2308   1.324       .  A
N2302     Mn2703   2.218       .  S
N2303      C2310   1.348       .  A
N2304      N2306   1.327       .  A
N2304      N2305   1.316       .  A
N2304     Mn2320   2.227       .  S
N2305      C2311   1.348       .  A
N2306      N2307   1.314       .  A
N2306     Mn2331   2.162       .  S
N2307      C2311   1.340       .  A
N2308      N2309   1.320       .  A
N2308     Mn2692   2.199       .  S
N2309      C2310   1.353       .  A
C2310      C2525   1.470       .  S
C2311      C2508   1.451       .  S
N2312      N2318   1.309       .  A
N2312      N2313   1.312       .  A
N2312     Mn2714   2.163   1_554  S
N2313      C2321   1.344       .  A
N2314      N2315   1.346       .  A
N2314      N2316   1.316       .  A
N2314     Mn2692   2.327       .  S
N2315      C2322   1.376       .  A
N2316      N2317   1.343       .  A
N2316     Mn2342   2.304       .  S
N2317      C2322   1.375       .  A
N2318      N2319   1.328       .  A
N2318     Mn2320   2.219       .  S
N2319      C2321   1.363       .  A
Mn2320     N2680   2.179   1_554  S
Mn2320     N2686   2.307   1_554  S
Mn2320    Cl2344   2.580       .  S
C2321      C2469   1.472       .  S
N2323      N2324   1.345       .  A
N2323      N2329   1.316       .  A
N2323     Mn2331   2.298       .  S
N2324      C2332   1.373       .  A
N2325      N2327   1.310       .  A
N2325      N2326   1.328       .  A
N2325     Mn2343   2.221       .  S
N2326      C2333   1.362       .  A
N2327      N2328   1.313       .  A
N2327     Mn2703   2.166       .  S
N2328      C2333   1.345       .  A
N2329      N2330   1.343       .  A
N2329     Mn2715   2.320   1_554  S
N2330      C2332   1.375       .  A
Mn2331     N2674   2.218   1_554  S
Mn2331     N2699   2.166   1_554  S
Mn2331    Cl2344   2.539       .  S
C2333      C2480   1.471       .  S
N2334      N2335   1.317       .  A
N2334      N2340   1.326       .  A
N2334     Mn2342   2.167       .  S
N2335      C2345   1.343       .  A
N2336      N2337   1.321       .  A
N2336      N2338   1.323       .  A
N2336     Mn2715   2.200   1_554  S
N2337      C2346   1.356       .  A
N2338      N2339   1.313       .  A
N2338     Mn2714   2.215   1_554  S
N2339      C2346   1.346       .  A
N2340      N2341   1.316       .  A
N2340     Mn2343   2.225       .  S
N2341      C2345   1.348       .  A
Mn2342     N2684   2.168       .  S
Mn2342     N2710   2.220       .  S
Mn2342    Cl2716   2.549       .  S
Mn2343     N2701   2.310       .  S
Mn2343     N2708   2.189       .  S
Mn2343    Cl2716   2.572       .  S
Cl2344    Mn2714   2.538   1_554  S
Cl2344    Mn2715   2.576   1_554  S
C2345      C2497   1.462       .  S
C2346      C2539   1.470       .  S
N2347      N2348   1.323       .  A
N2347      N2353   1.319       .  A
N2347     Mn2376   2.251   1_655  S
N2348      C2355   1.362       .  A
N2349      N2351   1.323       .  A
N2349      N2350   1.310       .  A
N2349     Mn2365   2.225       .  S
N2350      C2356   1.347       .  A
N2351      N2352   1.320       .  A
N2351     Mn2376   2.144   1_655  S
N2352      C2356   1.344       .  A
N2353      N2354   1.305       .  A
N2353     Mn2365   2.141       .  S
N2354      C2355   1.340       .  A
C2355      C2441   1.470       .  S
C2356      C2511   1.443       .  S
N2357      N2358   1.312       .  A
N2357     Mn2387   2.177       .  S
N2359      N2360   1.339       .  A
N2359      N2361   1.314       .  A
N2359     Mn2365   2.289       .  S
N2360      C2367   1.369       .  A
N2361      N2362   1.351       .  A
N2362      C2367   1.382       .  A
N2363      N2364   1.324       .  A
N2363     Mn2365   2.195       .  S
N2364      C2366   1.355       .  A
C2366      C2578   1.455       .  S
N2368      N2369   1.338       .  A
N2368      N2374   1.314       .  A
N2369      C2377   1.375       .  A
N2370      N2371   1.327       .  A
N2370     Mn2388   2.207       .  S
N2371      C2378   1.358       .  A
N2372      N2373   1.310       .  A
N2372     Mn2376   2.155       .  S
N2374      N2375   1.346       .  A
N2374     Mn2388   2.295       .  S
N2375      C2377   1.372       .  A
C2378      C2595   1.459       .  S
N2379      N2380   1.322       .  A
N2379      N2385   1.324       .  A
N2379     Mn2387   2.175       .  S
N2380      C2390   1.348       .  A
N2381      N2382   1.310       .  A
N2381      N2383   1.324       .  A
N2381     Mn2388   2.160       .  S
N2382      C2391   1.341       .  A
N2383      N2384   1.321       .  A
N2383     Mn2387   2.260       .  S
N2384      C2391   1.359       .  A
N2385      N2386   1.310       .  A
N2385     Mn2388   2.218       .  S
N2386      C2390   1.344       .  A
Mn2387    Cl2389   2.585       .  S
Mn2388    Cl2389   2.530       .  S
C2390      C2494   1.447       .  S
C2391      C2452   1.465       .  S
N2392      N2393   1.336       .  A
N2392      N2398   1.318       .  A
N2392     Mn2421   2.298       .  S
N2393      C2400   1.369       .  A
N2394      N2396   1.312       .  A
N2394      N2395   1.318       .  A
N2394     Mn2410   2.168       .  S
N2395      C2401   1.346       .  A
N2396      N2397   1.326       .  A
N2397      C2401   1.355       .  A
N2398      N2399   1.346       .  A
N2399      C2400   1.372       .  A
C2401      C2483   1.484       .  S
N2402      N2408   1.323       .  A
N2402      N2403   1.325       .  A
N2402     Mn2432   2.222       .  S
N2403      C2411   1.362       .  A
N2404      N2405   1.329       .  A
N2404      N2406   1.323       .  A
N2405      C2412   1.359       .  A
N2406      N2407   1.304       .  A
N2407      C2412   1.334       .  A
N2408      N2409   1.308       .  A
N2408     Mn2410   2.204       .  S
N2409      C2411   1.337       .  A
Mn2410    Cl2434   2.539       .  S
C2411      C2438   1.461       .  S
C2412      C2567   1.450       .  S
N2413      N2414   1.307       .  A
N2413      N2419   1.320       .  A
N2414      C2422   1.338       .  A
N2415      N2417   1.321       .  A
N2415      N2416   1.309       .  A
N2415     Mn2433   2.189       .  S
N2416      C2423   1.337       .  A
N2417      N2418   1.324       .  A
N2417     Mn2421   2.212       .  S
N2418      C2423   1.360       .  A
N2419      N2420   1.326       .  A
N2420      C2422   1.356       .  A
C2422      C2553   1.450       .  S
C2423      C2455   1.458       .  S
N2424      N2425   1.327       .  A
N2424      N2430   1.312   1_545  A
N2425      C2435   1.357   1_545  A
N2426      N2427   1.333       .  A
N2426      N2428   1.317       .  A
N2427      C2436   1.363       .  A
N2428      N2429   1.349       .  A
N2428     Mn2432   2.329       .  S
N2429      C2436   1.377       .  A
N2430      N2431   1.316       .  A
N2430     Mn2433   2.163       .  S
N2431      C2435   1.345       .  A
Mn2432    Cl2434   2.576       .  S
C2435      C2466   1.482       .  S
C2437      C2438   1.408       .  A
C2437      C2442   1.396       .  A
C2437      H2444   1.085       .  S
C2438      C2439   1.408       .  A
C2439      C2440   1.401       .  A
C2439      N2446   1.438       .  S
C2440      C2441   1.413       .  A
C2440      H2445   1.084       .  S
C2441      C2442   1.404       .  A
C2442      N2443   1.438       .  S
N2443      H2447   1.048       .  S
N2443      H2448   1.042       .  S
N2446      H2449   1.045       .  S
N2446      H2450   1.045       .  S
C2451      C2452   1.407       .  A
C2451      C2456   1.407       .  A
C2451      H2458   1.084       .  S
C2452      C2453   1.410       .  A
C2453      C2454   1.393       .  A
C2453      N2460   1.434       .  S
C2454      C2455   1.401       .  A
C2454      H2459   1.085       .  S
C2455      C2456   1.408       .  A
C2456      N2457   1.437       .  S
N2457      H2461   1.051       .  S
N2457      H2462   1.040       .  S
N2460      H2463   1.043       .  S
N2460      H2464   1.047       .  S
C2465      C2466   1.408       .  A
C2465      C2470   1.406       .  A
C2465      H2472   1.084       .  S
C2466      C2467   1.409       .  A
C2467      C2468   1.403       .  A
C2467      N2474   1.432       .  S
C2468      C2469   1.406       .  A
C2468      H2473   1.084       .  S
C2469      C2470   1.406       .  A
C2470      N2471   1.438       .  S
N2471      H2475   1.040       .  S
N2471      H2476   1.051       .  S
N2474      H2477   1.046   1_565  S
N2474      H2478   1.045       .  S
C2479      C2480   1.404       .  A
C2479      C2484   1.410       .  A
C2479      H2486   1.084       .  S
C2480      C2481   1.406       .  A
C2481      C2482   1.406       .  A
C2481      N2488   1.438       .  S
C2482      C2483   1.408       .  A
C2482      H2487   1.084       .  S
C2483      C2484   1.409       .  A
C2484      N2485   1.437       .  S
N2485      H2489   1.047       .  S
N2485      H2490   1.044       .  S
N2488      H2491   1.047       .  S
N2488      H2492   1.045       .  S
C2493      C2494   1.395       .  A
C2493      C2498   1.395       .  A
C2493      H2500   1.085       .  S
C2494      C2495   1.410       .  A
C2495      C2496   1.393       .  A
C2495      N2502   1.433       .  S
C2496      C2497   1.400       .  A
C2496      H2501   1.084       .  S
C2497      C2498   1.410       .  A
C2498      N2499   1.433       .  S
N2499      H2503   1.046       .  S
N2499      H2504   1.045       .  S
N2502      H2505   1.046       .  S
N2502      H2506   1.044       .  S
C2507      C2508   1.404       .  A
C2507      C2512   1.397       .  A
C2507      H2514   1.084       .  S
C2508      C2509   1.401       .  A
C2509      C2510   1.393       .  A
C2509      N2516   1.433       .  S
C2510      C2511   1.402       .  A
C2510      H2515   1.084       .  S
C2511      C2512   1.399       .  A
C2512      N2513   1.437       .  S
N2513      H2517   1.047       .  S
N2513      H2518   1.044       .  S
N2516      H2519   1.046       .  S
N2516      H2520   1.045       .  S
C2521      C2522   1.398       .  A
C2521      C2526   1.396       .  A
C2521      H2528   1.084       .  S
C2522      C2523   1.404       .  A
C2523      C2524   1.399       .  A
C2523      N2530   1.438       .  S
C2524      C2525   1.407       .  A
C2524      H2529   1.084       .  S
C2525      C2526   1.409       .  A
C2526      N2527   1.432       .  S
N2527      H2531   1.046       .  S
N2527      H2532   1.046       .  S
N2530      H2533   1.044       .  S
N2530      H2534   1.047       .  S
C2535      C2536   1.398       .  A
C2535      C2540   1.394       .  A
C2535      H2542   1.084       .  S
C2536      C2537   1.407       .  A
C2537      C2538   1.399       .  A
C2537      N2916   1.437       .  S
C2538      C2539   1.402       .  A
C2538      H2543   1.083       .  S
C2539      C2540   1.417       .  A
C2540      N2541   1.435       .  S
N2541      H2545   1.039       .  S
N2541      H2546   1.048       .  S
N2544      C2909   1.430       .  S
N2544      H2547   1.044       .  S
N2544      H2548   1.047       .  S
C2549      C2554   1.393       .  A
C2549      H2556   1.084       .  S
C2550      C2551   1.408       .  A
C2551      C2552   1.400       .  A
C2551      N2558   1.432       .  S
C2552      H2557   1.083       .  S
C2553      C2554   1.410       .  A
C2554      N2555   1.439       .  S
N2555      H2559   1.043       .  S
N2555      H2560   1.048       .  S
N2558      H2561   1.045       .  S
N2558      H2562   1.045       .  S
C2563      C2564   1.397       .  A
C2563      C2568   1.400       .  A
C2563      H2570   1.084       .  S
C2565      C2566   1.398       .  A
C2565      N2572   1.433   1_545  S
C2566      C2567   1.399       .  A
C2566      H2571   1.085   1_545  S
C2568      N2569   1.430       .  S
N2569      H2573   1.045       .  S
N2569      H2574   1.044       .  S
N2572      H2575   1.044       .  S
N2572      H2576   1.046       .  S
C2577      C2578   1.403       .  A
C2577      C2582   1.401       .  A
C2577      H2584   1.084       .  S
C2578      C2579   1.404       .  A
C2579      C2580   1.401       .  A
C2580      C2581   1.402       .  A
C2580      H2585   1.083       .  S
C2581      C2582   1.404       .  A
C2582      N2583   1.436       .  S
N2583      H2587   1.046       .  S
N2583      H2588   1.046   1_655  S
N2586      H2589   1.043       .  S
N2586      H2590   1.047       .  S
C2591      C2592   1.405       .  A
C2591      C2596   1.406       .  A
C2591      H2598   1.084       .  S
C2593      C2594   1.398       .  A
C2593      N2600   1.438       .  S
C2594      H2599   1.085       .  S
C2595      C2596   1.405       .  A
C2596      N2597   1.437       .  S
N2597      H2601   1.044       .  S
N2597      H2602   1.047       .  S
N2600      H2603   1.045       .  S
N2600      H2604   1.046   1_455  S
C2605      C2606   1.548       .  S
C2605      C2611   1.545       .  S
C2605      C2609   1.564       .  S
C2605      C2694   1.605       .  S
C2606      H2613   1.086       .  S
C2606      C2607   1.378       .  D
C2607      C2608   1.598       .  S
C2607      C2772   1.560       .  S
C2608      C2612   1.590       .  S
C2608      C2610   1.596       .  S
C2608      H2614   1.110       .  S
C2609      H2615   1.085       .  S
C2609      C2610   1.394       .  D
C2610      C2739   1.575       .  S
C2611      H2616   1.086       .  S
C2611      C2612   1.379       .  D
C2612      C2649   1.552       .  S
C2617      C2618   1.556       .  S
C2617      C2623   1.548       .  S
C2617      C2621   1.548       .  S
C2617      C2659   1.596       .  S
C2618      H2625   1.086       .  S
C2618      C2619   1.381       .  D
C2619      C2620   1.609       .  S
C2619      C2704   1.577       .  S
C2620      C2624   1.618       .  S
C2620      C2622   1.597       .  S
C2620      H2626   1.109       .  S
C2621      H2627   1.086       .  S
C2621      C2622   1.383       .  D
C2622      C2808   1.565       .  S
C2623      H2628   1.086       .  S
C2623      C2624   1.381       .  D
C2624      C2749   1.583       .  S
N2629      N2630   1.320       .  A
N2629      N2635   1.324       .  A
N2630      C2637   1.355       .  A
N2631      N2632   1.322       .  A
N2631     Mn2647   2.251   1_455  S
N2633      N2634   1.318       .  A
N2633     Mn2658   2.164       .  S
N2634      C2638   1.344       .  A
N2635      N2636   1.314       .  A
N2636      C2637   1.340       .  A
C2637      C2922   1.465       .  S
C2638      C2964   1.467       .  S
N2639      N2645   1.311       .  A
N2641      N2642   1.342       .  A
N2641      N2643   1.317       .  A
N2642      C2649   1.370       .  A
N2643      N2644   1.331       .  A
N2644      C2649   1.365       .  A
N2645      N2646   1.314       .  A
N2645     Mn2647   2.138       .  S
N2646      C2648   1.343       .  A
Mn2647    Cl2671   2.539   1_655  S
C2648      C2894   1.449       .  S
N2650      N2651   1.339       .  A
N2650      N2656   1.317       .  A
N2651      C2659   1.369       .  A
N2652      N2653   1.315       .  A
N2652     Mn2670   2.158   1_565  S
N2653      C2660   1.346       .  A
N2654      N2655   1.319       .  A
N2656      N2657   1.339       .  A
N2657      C2659   1.370       .  A
C2660      C2908   1.453       .  S
N2661      N2662   1.318       .  A
N2661      N2667   1.321       .  A
N2661     Mn2669   2.162       .  S
N2662      C2672   1.345       .  A
N2663      N2664   1.313       .  A
N2663      N2665   1.323       .  A
N2664      C2673   1.340       .  A
N2665      N2666   1.321       .  A
N2666      C2673   1.353       .  A
C2672      C2953   1.461       .  S
C2673      C2936   1.461       .  S
N2674      N2675   1.314       .  A
N2674      N2680   1.322       .  A
N2675      C2682   1.349       .  A
N2676      N2678   1.328       .  A
N2676      N2677   1.315       .  A
N2676     Mn2692   2.234       .  S
N2677      C2683   1.348       .  A
N2678      N2679   1.316       .  A
N2678     Mn2703   2.165       .  S
N2679      C2683   1.341       .  A
N2680      N2681   1.319       .  A
N2681      C2682   1.351       .  A
C2682      C2897   1.466       .  S
C2683      C2880   1.451       .  S
N2684      N2690   1.310       .  A
N2684      N2685   1.313       .  A
N2685      C2693   1.344       .  A
N2686      N2687   1.343       .  A
N2686      N2688   1.316       .  A
N2687      C2694   1.372       .  A
N2688      N2689   1.338       .  A
N2688     Mn2714   2.285       .  S
N2689      C2694   1.371       .  A
N2690      N2691   1.331       .  A
N2690     Mn2692   2.235       .  S
N2691      C2693   1.365       .  A
Mn2692    Cl2716   2.576       .  S
C2693      C2841   1.477       .  S
N2695      N2696   1.345       .  A
N2695      N2701   1.316       .  A
N2695     Mn2703   2.303       .  S
N2696      C2704   1.375       .  A
N2697      N2699   1.310       .  A
N2697      N2698   1.328       .  A
N2697     Mn2715   2.222       .  S
N2698      C2705   1.362       .  A
N2699      N2700   1.313       .  A
N2700      C2705   1.344       .  A
N2701      N2702   1.341       .  A
N2702      C2704   1.371       .  A
Mn2703    Cl2716   2.553       .  S
C2705      C2852   1.474       .  S
N2706      N2707   1.316       .  A
N2706      N2712   1.325       .  A
N2706     Mn2714   2.158       .  S
N2707      C2717   1.341       .  A
N2708      N2709   1.319       .  A
N2708      N2710   1.323       .  A
N2709      C2718   1.353       .  A
N2710      N2711   1.314       .  A
N2711      C2718   1.348       .  A
N2712      N2713   1.316       .  A
N2712     Mn2715   2.231       .  S
N2713      C2717   1.348       .  A
C2717      C2869   1.458       .  S
C2718      C2911   1.467       .  S
N2719      N2720   1.326       .  A
N2719      N2725   1.321       .  A
N2719     Mn2748   2.263   1_655  S
N2720      C2727   1.363       .  A
N2721      N2723   1.322       .  A
N2721      N2722   1.310       .  A
N2721     Mn2737   2.218       .  S
N2722      C2728   1.347       .  A
N2723      N2724   1.318       .  A
N2723     Mn2748   2.143   1_655  S
N2724      C2728   1.342       .  A
N2725      N2726   1.309       .  A
N2725     Mn2737   2.152       .  S
N2726      C2727   1.340       .  A
C2727      C2813   1.475       .  S
C2728      C2883   1.440       .  S
N2729      N2730   1.314       .  A
N2729     Mn2759   2.181       .  S
N2731      N2732   1.335       .  A
N2731      N2733   1.316       .  A
N2731     Mn2737   2.273       .  S
N2732      C2739   1.365       .  A
N2733      N2734   1.348       .  A
N2734      C2739   1.380       .  A
N2735      N2736   1.323       .  A
N2735     Mn2737   2.194       .  S
N2736      C2738   1.355       .  A
C2738      C2950   1.455       .  S
N2740      N2741   1.338       .  A
N2740      N2746   1.316       .  A
N2741      C2749   1.374       .  A
N2742      N2743   1.325       .  A
N2742     Mn2760   2.198       .  S
N2743      C2750   1.356       .  A
N2744      N2745   1.308       .  A
N2744     Mn2748   2.167       .  S
N2746      N2747   1.348       .  A
N2746     Mn2760   2.311       .  S
N2747      C2749   1.374       .  A
C2750      C2967   1.460       .  S
N2751      N2752   1.320       .  A
N2751      N2757   1.326       .  A
N2751     Mn2759   2.161       .  S
N2752      C2762   1.345       .  A
N2753      N2754   1.309       .  A
N2753      N2755   1.325       .  A
N2753     Mn2760   2.167       .  S
N2754      C2763   1.342       .  A
N2755      N2756   1.323       .  A
N2755     Mn2759   2.249       .  S
N2756      C2763   1.356       .  A
N2757      N2758   1.310       .  A
N2757     Mn2760   2.227       .  S
N2758      C2762   1.345       .  A
Mn2759    Cl2761   2.586       .  S
Mn2760    Cl2761   2.529       .  S
C2762      C2866   1.443       .  S
C2763      C2824   1.462       .  S
N2764      N2765   1.335       .  A
N2764      N2770   1.317       .  A
N2764     Mn2793   2.297       .  S
N2765      C2772   1.369       .  A
N2766      N2768   1.311       .  A
N2766      N2767   1.316       .  A
N2766     Mn2782   2.162       .  S
N2767      C2773   1.344       .  A
N2768      N2769   1.328       .  A
N2769      C2773   1.357       .  A
N2770      N2771   1.342       .  A
N2771      C2772   1.367       .  A
C2773      C2855   1.481       .  S
N2774      N2780   1.324       .  A
N2774      N2775   1.327       .  A
N2774     Mn2804   2.231       .  S
N2775      C2783   1.364       .  A
N2776      N2777   1.329       .  A
N2776      N2778   1.323       .  A
N2777      C2784   1.359       .  A
N2778      N2779   1.307       .  A
N2779      C2784   1.336       .  A
N2780      N2781   1.308       .  A
N2780     Mn2782   2.203       .  S
N2781      C2783   1.334       .  A
Mn2782    Cl2806   2.531       .  S
C2783      C2810   1.465       .  S
C2784      C2939   1.457       .  S
N2785      N2786   1.306       .  A
N2785      N2791   1.320       .  A
N2786      C2794   1.338       .  A
N2787      N2789   1.321       .  A
N2787      N2788   1.308       .  A
N2787     Mn2805   2.193       .  S
N2788      C2795   1.338       .  A
N2789      N2790   1.321       .  A
N2789     Mn2793   2.194       .  S
N2790      C2795   1.357       .  A
N2791      N2792   1.325       .  A
N2792      C2794   1.355       .  A
C2794      C2925   1.448       .  S
C2795      C2827   1.451       .  S
N2796      N2797   1.330       .  A
N2796      N2802   1.313   1_545  A
N2797      C2807   1.358   1_545  A
N2798      N2799   1.331       .  A
N2798      N2800   1.316       .  A
N2799      C2808   1.361       .  A
N2800      N2801   1.348       .  A
N2800     Mn2804   2.323       .  S
N2801      C2808   1.377       .  A
N2802      N2803   1.315       .  A
N2802     Mn2805   2.174       .  S
N2803      C2807   1.346       .  A
Mn2804    Cl2806   2.580       .  S
C2807      C2838   1.490       .  S
C2809      C2810   1.409       .  A
C2809      C2814   1.401       .  A
C2809      H2816   1.085       .  S
C2810      C2811   1.405       .  A
C2811      C2812   1.400       .  A
C2811      N2818   1.432       .  S
C2812      C2813   1.412       .  A
C2812      H2817   1.084       .  S
C2813      C2814   1.405       .  A
C2814      N2815   1.437       .  S
N2815      H2819   1.046       .  S
N2815      H2820   1.044       .  S
N2818      H2821   1.047       .  S
N2818      H2822   1.044       .  S
C2823      C2824   1.406       .  A
C2823      C2828   1.402       .  A
C2823      H2830   1.084       .  S
C2824      C2825   1.407       .  A
C2825      C2826   1.394       .  A
C2825      N2832   1.433       .  S
C2826      C2827   1.406       .  A
C2826      H2831   1.085       .  S
C2827      C2828   1.402       .  A
C2828      N2829   1.436       .  S
N2829      H2833   1.051       .  S
N2829      H2834   1.041       .  S
N2832      H2835   1.042       .  S
N2832      H2836   1.048       .  S
C2837      C2838   1.408       .  A
C2837      C2842   1.403       .  A
C2837      H2844   1.084       .  S
C2838      C2839   1.412       .  A
C2839      C2840   1.409       .  A
C2839      N2846   1.432       .  S
C2840      C2841   1.408       .  A
C2840      H2845   1.084       .  S
C2841      C2842   1.407       .  A
C2842      N2843   1.438       .  S
N2843      H2847   1.045       .  S
N2843      H2848   1.046       .  S
N2846      H2849   1.045       .  S
N2846      H2850   1.046       .  S
C2851      C2852   1.407       .  A
C2851      C2856   1.410       .  A
C2851      H2858   1.084       .  S
C2852      C2853   1.414       .  A
C2853      C2854   1.402       .  A
C2853      N2860   1.439       .  S
C2854      C2855   1.407       .  A
C2854      H2859   1.084       .  S
C2855      C2856   1.405       .  A
C2856      N2857   1.437       .  S
N2857      H2861   1.046       .  S
N2857      H2862   1.045       .  S
N2860      H2863   1.045       .  S
N2860      H2864   1.044       .  S
C2865      C2866   1.393       .  A
C2865      C2870   1.393       .  A
C2865      H2872   1.085       .  S
C2866      C2867   1.410       .  A
C2867      C2868   1.392       .  A
C2867      N2874   1.433       .  S
C2868      C2869   1.400       .  A
C2868      H2873   1.084       .  S
C2869      C2870   1.411       .  A
C2870      N2871   1.432       .  S
N2871      H2875   1.046       .  S
N2871      H2876   1.045       .  S
N2874      H2877   1.045       .  S
N2874      H2878   1.045       .  S
C2879      C2880   1.404       .  A
C2879      C2884   1.395       .  A
C2879      H2886   1.084       .  S
C2880      C2881   1.402       .  A
C2881      C2882   1.393       .  A
C2881      N2888   1.432       .  S
C2882      C2883   1.401       .  A
C2882      H2887   1.084       .  S
C2883      C2884   1.398       .  A
C2884      N2885   1.437       .  S
N2885      H2889   1.045       .  S
N2885      H2890   1.046       .  S
N2888      H2891   1.046       .  S
N2888      H2892   1.046       .  S
C2893      C2894   1.399       .  A
C2893      C2898   1.396       .  A
C2893      H2900   1.084       .  S
C2894      C2895   1.401       .  A
C2895      C2896   1.395       .  A
C2895      N2902   1.438       .  S
C2896      C2897   1.405       .  A
C2896      H2901   1.084       .  S
C2897      C2898   1.410       .  A
C2898      N2899   1.432       .  S
N2899      H2903   1.046       .  S
N2899      H2904   1.045       .  S
N2902      H2905   1.046       .  S
N2902      H2906   1.045       .  S
C2907      C2908   1.397       .  A
C2907      C2912   1.393       .  A
C2907      H2914   1.084       .  S
C2908      C2909   1.403       .  A
C2909      C2910   1.395       .  A
C2910      C2911   1.401       .  A
C2910      H2915   1.084       .  S
C2911      C2912   1.415       .  A
C2912      N2913   1.436       .  S
N2913      H2917   1.046       .  S
N2913      H2918   1.044       .  S
N2916      H2919   1.045       .  S
N2916      H2920   1.045       .  S
C2921      C2926   1.394       .  A
C2921      H2928   1.084       .  S
C2922      C2923   1.407       .  A
C2923      C2924   1.402       .  A
C2923      N2930   1.431       .  S
C2924      H2929   1.082       .  S
C2925      C2926   1.410       .  A
C2926      N2927   1.438       .  S
N2927      H2931   1.045       .  S
N2927      H2932   1.046       .  S
N2930      H2933   1.045       .  S
N2930      H2934   1.045       .  S
C2935      C2936   1.400       .  A
C2935      C2940   1.398       .  A
C2935      H2942   1.084       .  S
C2937      C2938   1.399       .  A
C2937      N2944   1.432   1_545  S
C2938      C2939   1.398       .  A
C2938      H2943   1.084   1_545  S
C2940      N2941   1.431       .  S
N2941      H2945   1.044       .  S
N2941      H2946   1.045       .  S
N2944      H2947   1.047       .  S
N2944      H2948   1.043       .  S
C2949      C2950   1.401       .  A
C2949      C2954   1.397       .  A
C2949      H2956   1.085       .  S
C2950      C2951   1.405       .  A
C2951      C2952   1.405       .  A
C2952      C2953   1.404       .  A
C2952      H2957   1.082       .  S
C2953      C2954   1.402       .  A
C2954      N2955   1.437       .  S
N2955      H2959   1.045       .  S
N2955      H2960   1.046   1_655  S
N2958      H2961   1.045       .  S
N2958      H2962   1.046       .  S
C2963      C2964   1.406       .  A
C2963      C2968   1.407       .  A
C2963      H2970   1.084       .  S
C2965      C2966   1.399       .  A
C2965      N2972   1.438   1_455  S
C2966      H2971   1.085       .  S
C2967      C2968   1.405       .  A
C2968      N2969   1.437       .  S
N2969      H2973   1.043       .  S
N2969      H2974   1.048       .  S
N2972      H2975   1.046       .  S
N2972      H2976   1.045       .  S
