geometry optimzed in LAMMPS
_audit_creation_date              2020-11-30 
_audit_creation_method            'lammps2cif' 
_symmetry_space_group_name_H-M    'P1' 
_symmetry_Int_Tables_number       1 
_symmetry_cell_setting            triclinic 
loop_ 
_symmetry_equiv_pos_as_xyz 
  x,y,z 
_cell_length_a                    53.200461981783704 
_cell_length_b                    53.23876144295124 
_cell_length_c                    32.3517959897722 
_cell_angle_alpha                 90.23314444637607 
_cell_angle_beta                  89.70022424098167 
_cell_angle_gamma                 120.08213588870764 
loop_ 
_atom_site_label 
_atom_site_type_symbol 
_atom_site_fract_x 
_atom_site_fract_y 
_atom_site_fract_z 
_atom_site_charge 
C1          C  0.25150127  0.37684406  0.17113309     0.03260
C2          C  0.25211853  0.39970157  0.14881582    -0.12890
C3          C  0.24818098  0.39766480  0.10584170     0.00760
C4          C  0.24473132  0.37303149  0.08486653    -0.11410
C5          C  0.24645271  0.35113888  0.10639943     0.03260
C6          C  0.24972266  0.35307484  0.14953100    -0.10830
H7          H  0.25467197  0.41866884  0.16511189     0.08850
H8          H  0.24195511  0.37149042  0.05160490     0.06380
H9          H  0.24996953  0.33564044  0.16638565     0.06230
C10         C  0.25306032  0.37662217  0.35018664     0.03260
C11         C  0.25270629  0.39919563  0.37232737    -0.12890
C12         C  0.24851817  0.39731698  0.41530557     0.00760
C13         C  0.24505766  0.37278535  0.43637036    -0.11410
C14         C  0.24676037  0.35073785  0.41488691     0.03260
C15         C  0.25032577  0.35255170  0.37178534    -0.10830
H16         H  0.25484107  0.41787656  0.35587727     0.08850
H17         H  0.24213283  0.37137143  0.46963478     0.06530
H18         H  0.25008956  0.33478565  0.35497440     0.06230
C19         C  0.10936088  0.37800562  0.35042732     0.03260
C20         C  0.13296663  0.40010060  0.37196472    -0.12890
C21         C  0.13530245  0.39814643  0.41492605     0.00760
C22         C  0.11369120  0.37400010  0.43628583    -0.11410
C23         C  0.08929971  0.35250691  0.41527510     0.03260
C24         C  0.08733772  0.35453197  0.37229547    -0.10830
H25         H  0.15000865  0.41825075  0.35506752     0.08850
H26         H  0.11531655  0.37248442  0.46947237     0.06380
H27         H  0.06902849  0.33750947  0.35567759     0.06230
C28         C  0.10995167  0.37757387  0.17199653     0.03260
C29         C  0.08754169  0.35446427  0.15012729    -0.12890
C30         C  0.08924407  0.35263647  0.10702734     0.00760
C31         C  0.11356302  0.37418144  0.08581144    -0.11410
C32         C  0.13534441  0.39819309  0.10715037     0.03260
C33         C  0.13334913  0.39987055  0.15029708    -0.10830
H34         H  0.06924780  0.33744259  0.16685567     0.08850
H35         H  0.11500803  0.37281066  0.05251961     0.06380
H36         H  0.15051948  0.41791084  0.16714540     0.06230
C37         C  0.10805274  0.23178449  0.17135880     0.03260
C38         C  0.08703435  0.23511519  0.14990755    -0.12890
C39         C  0.08925564  0.23950442  0.10695413     0.00760
C40         C  0.11309958  0.24137521  0.08553346    -0.11410
C41         C  0.13382136  0.23729899  0.10639431     0.03260
C42         C  0.13105986  0.23228785  0.14916037    -0.10830
H43         H  0.06942415  0.23521904  0.16674470     0.08850
H44         H  0.11492500  0.24487818  0.05240392     0.06380
H45         H  0.14739149  0.22974113  0.16548063     0.06230
C46         C  0.10966829  0.23300856  0.35048344     0.03260
C47         C  0.08802009  0.23551083  0.37197510    -0.12890
C48         C  0.08966228  0.23943573  0.41504343     0.00760
C49         C  0.11322381  0.24106115  0.43659101    -0.11410
C50         C  0.13403766  0.23689246  0.41577405     0.03260
C51         C  0.13181204  0.23227841  0.37289912    -0.10830
H52         H  0.07040683  0.23535887  0.35506140     0.08850
H53         H  0.11470723  0.24435692  0.46978066     0.06380
H54         H  0.14801318  0.22929263  0.35669292     0.06230
C55         C  0.37307040  0.11567375  0.34998701     0.03260
C56         C  0.39534897  0.13862323  0.37220360    -0.12890
C57         C  0.39299675  0.14070720  0.41507511     0.00760
C58         C  0.36849786  0.11917332  0.43593144    -0.11410
C59         C  0.34706987  0.09503750  0.41434571     0.03260
C60         C  0.34948126  0.09336514  0.37134750    -0.10830
H61         H  0.41403289  0.15543092  0.35584032     0.08850
H62         H  0.36668944  0.12060756  0.46914752     0.06380
H63         H  0.33246134  0.07530491  0.35433492     0.06230
C64         C  0.37315917  0.11426553  0.17168282     0.03260
C65         C  0.34922936  0.09255742  0.15022031    -0.12890
C66         C  0.34670726  0.09481865  0.10742478     0.00760
C67         C  0.36815579  0.11915931  0.08619709    -0.11410
C68         C  0.39265777  0.14045531  0.10719716     0.03260
C69         C  0.39507118  0.13784234  0.14986122    -0.10830
H70         H  0.33206080  0.07446304  0.16702903     0.08850
H71         H  0.36634074  0.12096171  0.05311205     0.06380
H72         H  0.41361553  0.15462992  0.16640003     0.06230
C73         C  0.37123123  0.25929750  0.17131351     0.03260
C74         C  0.34971258  0.26073468  0.14829995    -0.12890
C75         C  0.34704949  0.25498216  0.10574042     0.00760
C76         C  0.36773739  0.25036551  0.08538388    -0.11410
C77         C  0.39128795  0.25217397  0.10729212     0.03260
C78         C  0.39262140  0.25605545  0.15027945    -0.10830
H79         H  0.33421347  0.26510374  0.16381908     0.08850
H80         H  0.36621609  0.24667075  0.05228373     0.06380
H81         H  0.40992202  0.25575051  0.16740302     0.06230
C82         C  0.37311122  0.25931785  0.35058905     0.03260
C83         C  0.39346567  0.25487927  0.37193897    -0.12890
C84         C  0.39155938  0.25113425  0.41492761     0.00760
C85         C  0.36788394  0.24967010  0.43641653    -0.11410
C86         C  0.34733563  0.25403715  0.41554390     0.03260
C87         C  0.35053899  0.25962863  0.37297465    -0.10830
H88         H  0.41042538  0.25354912  0.35517348     0.08850
H89         H  0.36605495  0.24624349  0.46956010     0.06380
H90         H  0.33471096  0.26310192  0.35690261     0.06230
C91         C  0.22730979  0.11367941  0.35010456     0.03260
C92         C  0.22989811  0.09229798  0.37160854    -0.12890
C93         C  0.23499908  0.09485976  0.41435090     0.00760
C94         C  0.23790377  0.11928206  0.43543409    -0.11410
C95         C  0.23426509  0.14026924  0.41440665     0.03260
C96         C  0.22880398  0.13724893  0.37172315    -0.10830
H97         H  0.22863249  0.07402704  0.35483377     0.08850
H98         H  0.24174627  0.12131855  0.46847553     0.06380
H99         H  0.22687373  0.15381135  0.35500953     0.06230
C100        C  0.22834950  0.11485742  0.17198507     0.03260
C101        C  0.23004009  0.09298529  0.15008860    -0.12890
C102        C  0.23475081  0.09525347  0.10723821     0.00760
C103        C  0.23770153  0.11965409  0.08629880    -0.11410
C104        C  0.23452997  0.14094986  0.10765637     0.03260
C105        C  0.22969321  0.13833775  0.15056588    -0.10830
H106        H  0.22867411  0.07468792  0.16670092     0.08850
H107        H  0.24124037  0.12145215  0.05315063     0.06380
H108        H  0.22816046  0.15512801  0.16752663     0.06230
O109        O  0.26377281  0.31879767  0.09423583    -0.75160
O110        O  0.22605229  0.31445980  0.05541693    -0.54070
C111        C  0.24528968  0.32652072  0.08388185     0.78570
O112        O  0.31386292  0.27026770  0.42708932    -0.59760
O113        O  0.31051431  0.23313885  0.46633430    -0.52790
C114        C  0.32233696  0.25241711  0.43784758     0.70580
O115        O  0.26378220  0.31818807  0.42676329    -0.74320
O116        O  0.22620612  0.31430231  0.46610774    -0.54880
C117        C  0.24542231  0.32612464  0.43738983     0.76590
O118        O  0.31388084  0.27123738  0.09353315    -0.59460
O119        O  0.31048508  0.23363907  0.05495701    -0.52580
C120        C  0.32229566  0.25324127  0.08310797     0.73180
Zr121      Zr  0.27744231  0.28338460  0.07194446     2.54710
O122        O  0.32270084  0.32957556  0.06805356    -0.80030
O123        O  0.27790210  0.28300941  0.14722293    -0.93440
Zr124      Zr  0.27752583  0.28291919  0.44891689     2.64680
O125        O  0.32261749  0.32933107  0.45193509    -0.98400
O126        O  0.27783936  0.28256071  0.37364779    -0.80460
O127        O  0.26386551  0.29762118  0.01041849    -0.83820
O128        O  0.29228973  0.27001104  0.01046050    -2.18530
O129        O  0.21760308  0.17367073  0.09583455    -0.67210
O130        O  0.25486533  0.17725054  0.05610143    -0.51770
C131        C  0.23585327  0.16561576  0.08513566     0.71560
O132        O  0.16664969  0.21990363  0.42816226    -0.60110
O133        O  0.17051611  0.25779253  0.46652822    -0.52090
C134        C  0.15855391  0.23818296  0.43844231     0.73370
O135        O  0.21735848  0.17297331  0.42655324    -0.71510
O136        O  0.25480198  0.17692234  0.46562702    -0.50190
C137        C  0.23566091  0.16503526  0.43697021     0.74750
O138        O  0.16680810  0.22061810  0.09424421    -0.66840
O139        O  0.17043235  0.25802418  0.05536886    -0.54040
C140        C  0.15855955  0.23868473  0.08377060     0.73130
Zr141      Zr  0.20341610  0.20838096  0.07257114     2.77540
O142        O  0.15801233  0.16221469  0.07045204    -0.97590
O143        O  0.20380047  0.20966822  0.14779665    -0.78410
Zr144      Zr  0.20344616  0.20804411  0.44938302     2.70070
O145        O  0.15839580  0.16158142  0.45129905    -0.79660
O146        O  0.20419898  0.20993900  0.37415773    -0.98740
Zr147      Zr  0.21218959  0.27290760  0.01080865     2.21500
Zr148      Zr  0.26868380  0.21833065  0.01071246     2.11130
O149        O  0.21693764  0.19375428  0.01094334    -2.47430
O150        O  0.18849105  0.22129147  0.01101970    -0.79450
O151        O  0.25484520  0.23203961  0.07313553    -0.71650
O152        O  0.22614506  0.25927245  0.44834658    -2.32600
O153        O  0.22607966  0.25964866  0.07324333    -2.28810
O154        O  0.25487692  0.23156211  0.44821228    -0.73400
H155        H  0.31315271  0.27855483  0.01041272     0.78590
H156        H  0.21970682  0.26526927  0.42442436     0.79680
H157        H  0.20885044  0.17296183  0.01097063     0.81900
H158        H  0.21966799  0.26581012  0.09721255     0.79510
H159        H  0.25727556  0.27470667  0.36575688     0.42550
H160        H  0.22395699  0.21415829  0.36631983     0.41520
H161        H  0.14867827  0.16224697  0.47712541     0.41200
H162        H  0.16266624  0.14899784  0.05489756     0.39130
H163        H  0.22465157  0.21963631  0.15516459     0.42260
H164        H  0.25860829  0.27984822  0.15564293     0.37050
H165        H  0.31972891  0.34006528  0.04512127     0.43160
H166        H  0.33616921  0.32535463  0.46762931     0.39580
H167        H  0.15496380  0.15502420  0.09925977     0.44500
H168        H  0.29168938  0.30335997  0.15513724     0.43220
H169        H  0.33016984  0.33273009  0.42324129     0.43350
H170        H  0.19126126  0.18960106  0.36531422     0.43710
O171        O  0.03958697  0.31971070  0.42784548    -0.75160
O172        O  0.07352137  0.31620415  0.46648186    -0.54070
C173        C  0.06598039  0.32791134  0.43807081     0.78570
O174        O  0.44107603  0.26891924  0.09610106    -0.59760
O175        O  0.40756528  0.23184369  0.05619799    -0.52790
C176        C  0.41478834  0.25072881  0.08523970     0.70580
O177        O  0.03946665  0.31981306  0.09498152    -0.74320
O178        O  0.07341239  0.31634754  0.05565597    -0.54880
C179        C  0.06586960  0.32805034  0.08435227     0.76590
O180        O  0.44122646  0.26815168  0.42663882    -0.59460
O181        O  0.40752221  0.23128113  0.46669353    -0.52580
C182        C  0.41488500  0.24992725  0.43742203     0.73180
Zr183      Zr  0.49052160  0.28356511  0.44995663     2.54710
O184        O  0.48903193  0.32841220  0.45554231    -0.80030
O185        O  0.49033090  0.28508136  0.37470801    -0.93440
Zr186      Zr  0.49042473  0.28376935  0.07288346     2.64680
O187        O  0.48988189  0.32914096  0.06840551    -0.98400
O188        O  0.49063134  0.28528171  0.14811221    -0.80460
O189        O  0.01868850  0.29849365  0.01131782    -0.83820
O190        O  0.46235002  0.26999724  0.01148714    -2.18530
O191        O  0.44251441  0.17396671  0.42691445    -0.67210
O192        O  0.40847217  0.17670958  0.46687191    -0.51770
C193        C  0.41612251  0.16537950  0.43780350     0.71560
O194        O  0.03983492  0.22277191  0.09473723    -0.60110
O195        O  0.07370720  0.26051581  0.05604893    -0.52090
C196        C  0.06617681  0.24115507  0.08444760     0.73370
O197        O  0.44219976  0.17384819  0.09538840    -0.71510
O198        O  0.40825968  0.17678812  0.05609344    -0.50190
C199        C  0.41583179  0.16531664  0.08476274     0.74750
O200        O  0.04012808  0.22278135  0.42713672    -0.66840
O201        O  0.07382550  0.26035665  0.46615916    -0.54040
C202        C  0.06642710  0.24107292  0.43755382     0.73130
Zr203      Zr  0.49127364  0.20955589  0.44968417     2.77540
O204        O  0.49179389  0.16411038  0.45160711    -0.97590
O205        O  0.49163300  0.21056489  0.37445931    -0.78410
Zr206      Zr  0.49104898  0.20971737  0.07291791     2.70070
O207        O  0.49092849  0.16395431  0.07130663    -0.79660
O208        O  0.49204419  0.21175259  0.14815098    -0.98740
Zr209      Zr  0.04652266  0.27468377  0.01114565     2.21500
Zr210      Zr  0.43533177  0.21824900  0.01153130     2.11130
O211        O  0.46326231  0.19460360  0.01136274    -2.47430
O212        O  0.01924650  0.22306123  0.01123882    -0.79450
O213        O  0.46267186  0.23218395  0.44900558    -0.71650
O214        O  0.01890888  0.26099473  0.07359397    -2.32600
O215        O  0.01907624  0.26084597  0.44881129    -2.28810
O216        O  0.46243922  0.23235148  0.07402455    -0.73400
H217        H  0.44954456  0.27795795  0.01144740     0.78590
H218        H  0.03137448  0.26732494  0.09753760     0.79680
H219        H  0.45087608  0.17375427  0.01140273     0.81900
H220        H  0.03157726  0.26713840  0.42477329     0.79510
H221        H  0.00099843  0.27501324  0.15641977     0.42550
H222        H  0.47580969  0.21491214  0.15592897     0.41520
H223        H  0.00081649  0.16451386  0.04502739     0.41200
H224        H  0.47398335  0.15053866  0.46701841     0.39130
H225        H  0.48166055  0.22144395  0.36732782     0.42260
H226        H  0.00652247  0.28213289  0.36590372     0.37050
H227        H  0.00401647  0.34007928  0.47635111     0.43160
H228        H  0.47146148  0.32399728  0.05423688     0.39580
H229        H  0.48785336  0.15693308  0.42274757     0.44500
H230        H  0.49697303  0.30559900  0.36791388     0.43220
H231        H  0.48683656  0.33335138  0.09725045     0.43350
H232        H  0.48559614  0.19162462  0.15697393     0.43710
O233        O  0.26589496  0.44712938  0.42754732    -0.75160
O234        O  0.22791905  0.41347978  0.46621753    -0.54070
C235        C  0.24742375  0.42081589  0.43793106     0.78570
O236        O  0.31360748  0.04525457  0.09550171    -0.59760
O237        O  0.31064710  0.07907818  0.05587954    -0.52790
C238        C  0.32198277  0.07158695  0.08487844     0.70580
O239        O  0.26563639  0.44738747  0.09362187    -0.74320
O240        O  0.22792117  0.41367664  0.05483159    -0.54880
C241        C  0.24725125  0.42107675  0.08316114     0.76590
O242        O  0.31398257  0.04532025  0.42580787    -0.59460
O243        O  0.31080417  0.07907307  0.46584284    -0.52580
C244        C  0.32228986  0.07164544  0.43670391     0.73180
Zr245      Zr  0.27897066  0.49631032  0.44904595     2.54710
O246        O  0.32502507  0.49712568  0.45379671    -0.80030
O247        O  0.28008495  0.99630684  0.37375989    -0.93440
Zr248      Zr  0.27882352  0.49637041  0.07189803     2.64680
O249        O  0.32467092  0.49666064  0.06721487    -0.98400
O250        O  0.27954709  0.99588054  0.14713027    -0.80460
O251        O  0.26522241  0.46816408  0.01043852    -0.83820
O252        O  0.29362661  0.02448420  0.01050808    -2.18530
O253        O  0.21850960  0.04533657  0.42630997    -0.67210
O254        O  0.25547685  0.07922221  0.46588726    -0.51770
C255        C  0.23654580  0.07169884  0.43693906     0.71560
O256        O  0.16822743  0.44781523  0.09485471    -0.60110
O257        O  0.17192702  0.41393795  0.05583154    -0.52090
C258        C  0.16009605  0.42145901  0.08444104     0.73370
O259        O  0.21815491  0.04563648  0.09521121    -0.71510
O260        O  0.25533461  0.07941969  0.05563069    -0.50190
C261        C  0.23624665  0.07198007  0.08454981     0.74750
O262        O  0.16843335  0.44771563  0.42700606    -0.66840
O263        O  0.17187085  0.41385935  0.46589885    -0.54040
C264        C  0.16014429  0.42137132  0.43742960     0.73130
Zr265      Zr  0.20456865  0.49645203  0.44934400     2.77540
O266        O  0.15887710  0.49655486  0.45195883    -0.97590
O267        O  0.20520091  0.49606071  0.37410947    -0.78410
Zr268      Zr  0.20450459  0.49658482  0.07265799     2.70070
O269        O  0.15909350  0.49721408  0.07137120    -0.79660
O270        O  0.20563536  0.49575676  0.14787035    -0.98740
Zr271      Zr  0.21350268  0.44080578  0.01062599     2.21500
Zr272      Zr  0.26944787  0.05200037  0.01082125     2.11130
O273        O  0.21774649  0.02443042  0.01101300    -2.47430
O274        O  0.18962562  0.46848474  0.01097584    -0.79450
O275        O  0.25593822  0.02460950  0.44839412    -0.71650
O276        O  0.22745889  0.46831660  0.07304508    -2.32600
O277        O  0.22757604  0.46821995  0.44821439    -2.28810
O278        O  0.25587206  0.02475433  0.07325228    -0.73400
H279        H  0.31445748  0.03708640  0.01041276     0.78590
H280        H  0.22115412  0.45582438  0.09698858     0.79680
H281        H  0.20949911  0.03698489  0.01111963     0.81900
H282        H  0.22131511  0.45570284  0.42423699     0.79510
H283        H  0.25883474  0.48474126  0.15538236     0.42550
H284        H  0.22538132  0.01146162  0.15528631     0.41520
H285        H  0.14937073  0.48662891  0.04575693     0.41200
H286        H  0.16337716  0.01445858  0.46727752     0.39130
H287        H  0.22607162  0.00569915  0.36670695     0.42260
H288        H  0.26084590  0.48008180  0.36546786     0.37050
H289        H  0.32173992  0.48264185  0.47537245     0.43160
H290        H  0.33811815  0.01503710  0.05296453     0.39580
H291        H  0.15567713  0.50047306  0.42314125     0.44500
H292        H  0.29390985  0.48965258  0.36648802     0.43220
H293        H  0.33182222  0.49967689  0.09602522     0.43350
H294        H  0.19262166  0.50302538  0.15691984     0.43710
C295        C  0.25178265  0.11905777  0.28303714    -0.09020
C296        C  0.22646740  0.11312154  0.30454174     0.07170
C297        C  0.20152745  0.10768391  0.28231713    -0.02790
C298        C  0.20232311  0.10838293  0.23897699    -0.07240
C299        C  0.22774327  0.11434636  0.21756256     0.06290
C300        C  0.25262866  0.11982256  0.23993051    -0.02260
Br301      Br  0.28867169  0.12966550  0.21301664    -0.01960
H302        H  0.27114618  0.12358191  0.29995010     0.10200
H303        H  0.18307154  0.10405526  0.22195581     0.08220
Br304      Br  0.16588530  0.09834526  0.30988201    -0.02390
C305        C  0.39747613  0.27767742  0.23811811    -0.09020
C306        C  0.37115746  0.26041682  0.21722047     0.07170
C307        C  0.34566314  0.24338027  0.24071788    -0.02790
C308        C  0.34707848  0.24379871  0.28375195    -0.07240
C309        C  0.37338783  0.26080015  0.30469919     0.06290
C310        C  0.39886450  0.27800424  0.28131359    -0.02260
Br311      Br  0.43603850  0.30333627  0.30584137    -0.01960
H312        H  0.41717548  0.29112482  0.22069204     0.10200
H313        H  0.32742349  0.22992802  0.30102174     0.08220
Br314      Br  0.30840304  0.21710052  0.21694596    -0.02390
C315        C  0.37219304  0.09175150  0.28328748    -0.09020
C316        C  0.37380574  0.11562837  0.30435425     0.07170
C317        C  0.37533475  0.13886687  0.28149611    -0.02790
C318        C  0.37552597  0.13800969  0.23843181    -0.07240
C319        C  0.37390442  0.11419099  0.21730173     0.06290
C320        C  0.37228564  0.09088809  0.24003705    -0.02260
Br321      Br  0.37140601  0.05809256  0.21369112    -0.01960
H322        H  0.37107061  0.07382781  0.30057885     0.10200
H323        H  0.37624338  0.15579293  0.22124476     0.08220
Br324      Br  0.37512239  0.17141872  0.30709292    -0.02390
C325        C  0.08443285  0.21181146  0.28367678    -0.09020
C326        C  0.10961559  0.23214281  0.30462525     0.07170
C327        C  0.13407005  0.25200716  0.28135141    -0.02790
C328        C  0.13302760  0.25105017  0.23823302    -0.07240
C329        C  0.10789931  0.23080511  0.21721395     0.06290
C330        C  0.08338906  0.21095075  0.24037931    -0.02260
Br331      Br  0.04845234  0.18142424  0.21479790    -0.01960
H332        H  0.06553654  0.19637935  0.30111776     0.10200
H333        H  0.15181667  0.26681908  0.22091676     0.08220
Br334      Br  0.16882944  0.28248773  0.30624229    -0.02390
C335        C  0.10575704  0.39839947  0.23908722    -0.09020
C336        C  0.10962110  0.37759345  0.21765970     0.07170
C337        C  0.11321221  0.35698173  0.24011810    -0.02790
C338        C  0.11278524  0.35736699  0.28330651    -0.07240
C339        C  0.10890516  0.37812105  0.30477654     0.06290
C340        C  0.10523057  0.39868970  0.28240595    -0.02260
Br341      Br  0.09821262  0.42663901  0.30973543    -0.01960
H342        H  0.10280904  0.41420980  0.22205614     0.10200
H343        H  0.11587185  0.34161594  0.30028194     0.08220
Br344      Br  0.11991212  0.32860017  0.21326987    -0.02390
C345        C  0.23314186  0.38162955  0.28354562    -0.09020
C346        C  0.25369560  0.37720713  0.30433792     0.07170
C347        C  0.27371374  0.37290318  0.28097992    -0.02790
C348        C  0.27274840  0.37299157  0.23772579    -0.07240
C349        C  0.25218369  0.37745749  0.21697588     0.06290
C350        C  0.23212962  0.38168621  0.24041758    -0.02260
Br351      Br  0.20153407  0.38567526  0.21571158    -0.01960
H352        H  0.21728333  0.38442495  0.30104119     0.10200
H353        H  0.28835804  0.36985693  0.22015317     0.08220
Br354      Br  0.30371497  0.36826070  0.30622344    -0.02390
C355        C  0.25150127  0.37684406  0.67113309     0.03260
C356        C  0.25211853  0.39970157  0.64881582    -0.12890
C357        C  0.24818099  0.39766480  0.60584170     0.00760
C358        C  0.24473133  0.37303149  0.58486652    -0.11410
C359        C  0.24645271  0.35113888  0.60639942     0.03260
C360        C  0.24972266  0.35307484  0.64953100    -0.10830
H361        H  0.25467196  0.41866883  0.66511189     0.08850
H362        H  0.24195512  0.37149042  0.55160490     0.06380
H363        H  0.24996953  0.33564044  0.66638564     0.06230
C364        C  0.25306031  0.37662217  0.85018664     0.03260
C365        C  0.25270628  0.39919563  0.87232737    -0.12890
C366        C  0.24851816  0.39731698  0.91530557     0.00760
C367        C  0.24505766  0.37278535  0.93637036    -0.11410
C368        C  0.24676036  0.35073784  0.91488691     0.03260
C369        C  0.25032576  0.35255170  0.87178534    -0.10830
H370        H  0.25484106  0.41787656  0.85587727     0.08850
H371        H  0.24213283  0.37137143  0.96963478     0.06530
H372        H  0.25008955  0.33478565  0.85497440     0.06230
C373        C  0.10936088  0.37800562  0.85042732     0.03260
C374        C  0.13296663  0.40010060  0.87196472    -0.12890
C375        C  0.13530245  0.39814643  0.91492605     0.00760
C376        C  0.11369120  0.37400010  0.93628583    -0.11410
C377        C  0.08929971  0.35250691  0.91527510     0.03260
C378        C  0.08733772  0.35453197  0.87229547    -0.10830
H379        H  0.15000865  0.41825075  0.85506752     0.08850
H380        H  0.11531655  0.37248442  0.96947236     0.06380
H381        H  0.06902849  0.33750947  0.85567759     0.06230
C382        C  0.10995167  0.37757387  0.67199653     0.03260
C383        C  0.08754169  0.35446427  0.65012729    -0.12890
C384        C  0.08924408  0.35263647  0.60702734     0.00760
C385        C  0.11356302  0.37418144  0.58581144    -0.11410
C386        C  0.13534441  0.39819309  0.60715036     0.03260
C387        C  0.13334913  0.39987055  0.65029707    -0.10830
H388        H  0.06924780  0.33744259  0.66685567     0.08850
H389        H  0.11500803  0.37281066  0.55251961     0.06380
H390        H  0.15051948  0.41791084  0.66714540     0.06230
C391        C  0.10805274  0.23178449  0.67135880     0.03260
C392        C  0.08703435  0.23511519  0.64990754    -0.12890
C393        C  0.08925565  0.23950442  0.60695413     0.00760
C394        C  0.11309959  0.24137521  0.58553346    -0.11410
C395        C  0.13382137  0.23729899  0.60639431     0.03260
C396        C  0.13105987  0.23228786  0.64916037    -0.10830
H397        H  0.06942416  0.23521904  0.66674469     0.08850
H398        H  0.11492500  0.24487818  0.55240391     0.06380
H399        H  0.14739149  0.22974113  0.66548063     0.06230
C400        C  0.10966829  0.23300857  0.85048344     0.03260
C401        C  0.08802009  0.23551083  0.87197510    -0.12890
C402        C  0.08966228  0.23943573  0.91504342     0.00760
C403        C  0.11322381  0.24106115  0.93659101    -0.11410
C404        C  0.13403766  0.23689246  0.91577405     0.03260
C405        C  0.13181204  0.23227841  0.87289912    -0.10830
H406        H  0.07040683  0.23535888  0.85506140     0.08850
H407        H  0.11470722  0.24435692  0.96978066     0.06380
H408        H  0.14801318  0.22929263  0.85669292     0.06230
C409        C  0.37307041  0.11567374  0.84998701     0.03260
C410        C  0.39534897  0.13862323  0.87220361    -0.12890
C411        C  0.39299675  0.14070719  0.91507511     0.00760
C412        C  0.36849786  0.11917332  0.93593145    -0.11410
C413        C  0.34706988  0.09503750  0.91434571     0.03260
C414        C  0.34948126  0.09336513  0.87134750    -0.10830
H415        H  0.41403290  0.15543091  0.85584033     0.08850
H416        H  0.36668944  0.12060756  0.96914753     0.06380
H417        H  0.33246134  0.07530491  0.85433492     0.06230
C418        C  0.37315917  0.11426553  0.67168282     0.03260
C419        C  0.34922936  0.09255742  0.65022031    -0.12890
C420        C  0.34670726  0.09481865  0.60742479     0.00760
C421        C  0.36815578  0.11915931  0.58619709    -0.11410
C422        C  0.39265777  0.14045531  0.60719716     0.03260
C423        C  0.39507118  0.13784234  0.64986122    -0.10830
H424        H  0.33206080  0.07446305  0.66702904     0.08850
H425        H  0.36634073  0.12096171  0.55311205     0.06380
H426        H  0.41361553  0.15462992  0.66640002     0.06230
C427        C  0.37123122  0.25929749  0.67131352     0.03260
C428        C  0.34971258  0.26073467  0.64829996    -0.12890
C429        C  0.34704950  0.25498216  0.60574042     0.00760
C430        C  0.36773739  0.25036551  0.58538388    -0.11410
C431        C  0.39128796  0.25217397  0.60729212     0.03260
C432        C  0.39262140  0.25605545  0.65027945    -0.10830
H433        H  0.33421347  0.26510372  0.66381909     0.08850
H434        H  0.36621609  0.24667076  0.55228373     0.06380
H435        H  0.40992202  0.25575050  0.66740302     0.06230
C436        C  0.37311121  0.25931784  0.85058905     0.03260
C437        C  0.39346567  0.25487926  0.87193898    -0.12890
C438        C  0.39155938  0.25113424  0.91492762     0.00760
C439        C  0.36788394  0.24967010  0.93641654    -0.11410
C440        C  0.34733562  0.25403715  0.91554391     0.03260
C441        C  0.35053898  0.25962862  0.87297465    -0.10830
H442        H  0.41042537  0.25354911  0.85517348     0.08850
H443        H  0.36605494  0.24624349  0.96956011     0.06380
H444        H  0.33471096  0.26310192  0.85690262     0.06230
C445        C  0.22730979  0.11367941  0.85010456     0.03260
C446        C  0.22989810  0.09229798  0.87160854    -0.12890
C447        C  0.23499908  0.09485976  0.91435090     0.00760
C448        C  0.23790377  0.11928206  0.93543409    -0.11410
C449        C  0.23426508  0.14026924  0.91440666     0.03260
C450        C  0.22880398  0.13724893  0.87172315    -0.10830
H451        H  0.22863248  0.07402704  0.85483377     0.08850
H452        H  0.24174627  0.12131855  0.96847553     0.06380
H453        H  0.22687372  0.15381135  0.85500953     0.06230
C454        C  0.22834950  0.11485742  0.67198507     0.03260
C455        C  0.23004009  0.09298529  0.65008860    -0.12890
C456        C  0.23475081  0.09525347  0.60723821     0.00760
C457        C  0.23770153  0.11965409  0.58629880    -0.11410
C458        C  0.23452998  0.14094987  0.60765637     0.03260
C459        C  0.22969321  0.13833776  0.65056588    -0.10830
H460        H  0.22867410  0.07468792  0.66670093     0.08850
H461        H  0.24124038  0.12145215  0.55315063     0.06380
H462        H  0.22816046  0.15512801  0.66752664     0.06230
O463        O  0.26377282  0.31879768  0.59423583    -0.75160
O464        O  0.22605229  0.31445980  0.55541693    -0.54070
C465        C  0.24528968  0.32652072  0.58388185     0.78570
O466        O  0.31386292  0.27026769  0.92708932    -0.59760
O467        O  0.31051430  0.23313885  0.96633430    -0.52790
C468        C  0.32233696  0.25241711  0.93784758     0.70580
O469        O  0.26378219  0.31818807  0.92676329    -0.74320
O470        O  0.22620611  0.31430231  0.96610774    -0.54880
C471        C  0.24542230  0.32612463  0.93738983     0.76590
O472        O  0.31388085  0.27123738  0.59353315    -0.59460
O473        O  0.31048508  0.23363907  0.55495701    -0.52580
C474        C  0.32229566  0.25324127  0.58310797     0.73180
Zr475      Zr  0.27744232  0.28338461  0.57194446     2.54710
O476        O  0.32270085  0.32957556  0.56805355    -0.80030
O477        O  0.27790211  0.28300942  0.64722293    -0.93440
Zr478      Zr  0.27752582  0.28291919  0.94891689     2.64680
O479        O  0.32261748  0.32933107  0.95193509    -0.98400
O480        O  0.27783936  0.28256071  0.87364779    -0.80460
O481        O  0.26386551  0.29762118  0.51041849    -0.83820
O482        O  0.29228974  0.27001104  0.51046050    -2.18530
O483        O  0.21760308  0.17367074  0.59583455    -0.67210
O484        O  0.25486533  0.17725054  0.55610143    -0.51770
C485        C  0.23585328  0.16561576  0.58513566     0.71560
O486        O  0.16664969  0.21990363  0.92816226    -0.60110
O487        O  0.17051610  0.25779253  0.96652822    -0.52090
C488        C  0.15855391  0.23818296  0.93844231     0.73370
O489        O  0.21735847  0.17297331  0.92655324    -0.71510
O490        O  0.25480198  0.17692234  0.96562702    -0.50190
C491        C  0.23566090  0.16503526  0.93697021     0.74750
O492        O  0.16680811  0.22061810  0.59424421    -0.66840
O493        O  0.17043236  0.25802418  0.55536886    -0.54040
C494        C  0.15855955  0.23868473  0.58377060     0.73130
Zr495      Zr  0.20341611  0.20838097  0.57257114     2.77540
O496        O  0.15801234  0.16221470  0.57045204    -0.97590
O497        O  0.20380048  0.20966823  0.64779665    -0.78410
Zr498      Zr  0.20344616  0.20804411  0.94938302     2.70070
O499        O  0.15839579  0.16158142  0.95129905    -0.79660
O500        O  0.20419898  0.20993901  0.87415773    -0.98740
Zr501      Zr  0.21218959  0.27290761  0.51080864     2.21500
Zr502      Zr  0.26868380  0.21833065  0.51071246     2.11130
O503        O  0.21693765  0.19375429  0.51094334    -2.47430
O504        O  0.18849106  0.22129147  0.51101970    -0.79450
O505        O  0.25484521  0.23203961  0.57313553    -0.71650
O506        O  0.22614505  0.25927245  0.94834658    -2.32600
O507        O  0.22607966  0.25964866  0.57324333    -2.28810
O508        O  0.25487691  0.23156211  0.94821228    -0.73400
H509        H  0.31315272  0.27855483  0.51041272     0.78590
H510        H  0.21970681  0.26526927  0.92442437     0.79680
H511        H  0.20885045  0.17296183  0.51097063     0.81900
H512        H  0.21966799  0.26581012  0.59721255     0.79510
H513        H  0.25727555  0.27470667  0.86575689     0.42550
H514        H  0.22395699  0.21415829  0.86631983     0.41520
H515        H  0.14867826  0.16224697  0.97712540     0.41200
H516        H  0.16266625  0.14899785  0.55489757     0.39130
H517        H  0.22465158  0.21963632  0.65516459     0.42260
H518        H  0.25860830  0.27984823  0.65564293     0.37050
H519        H  0.31972891  0.34006529  0.54512127     0.43160
H520        H  0.33616920  0.32535463  0.96762931     0.39580
H521        H  0.15496381  0.15502421  0.59925978     0.44500
H522        H  0.29168939  0.30335998  0.65513724     0.43220
H523        H  0.33016984  0.33273009  0.92324129     0.43350
H524        H  0.19126126  0.18960106  0.86531422     0.43710
O525        O  0.03958697  0.31971070  0.92784548    -0.75160
O526        O  0.07352137  0.31620415  0.96648186    -0.54070
C527        C  0.06598039  0.32791134  0.93807080     0.78570
O528        O  0.44107603  0.26891924  0.59610106    -0.59760
O529        O  0.40756528  0.23184369  0.55619799    -0.52790
C530        C  0.41478834  0.25072881  0.58523970     0.70580
O531        O  0.03946666  0.31981306  0.59498153    -0.74320
O532        O  0.07341239  0.31634754  0.55565597    -0.54880
C533        C  0.06586960  0.32805034  0.58435227     0.76590
O534        O  0.44122646  0.26815168  0.92663882    -0.59460
O535        O  0.40752221  0.23128112  0.96669353    -0.52580
C536        C  0.41488499  0.24992725  0.93742204     0.73180
Zr537      Zr  0.49052160  0.28356510  0.94995663     2.54710
O538        O  0.48903193  0.32841220  0.95554229    -0.80030
O539        O  0.49033090  0.28508134  0.87470800    -0.93440
Zr540      Zr  0.49042473  0.28376935  0.57288346     2.64680
O541        O  0.48988189  0.32914096  0.56840552    -0.98400
O542        O  0.49063135  0.28528171  0.64811221    -0.80460
O543        O  0.01868850  0.29849365  0.51131782    -0.83820
O544        O  0.46235002  0.26999724  0.51148714    -2.18530
O545        O  0.44251442  0.17396671  0.92691446    -0.67210
O546        O  0.40847218  0.17670958  0.96687191    -0.51770
C547        C  0.41612252  0.16537950  0.93780350     0.71560
O548        O  0.03983492  0.22277191  0.59473722    -0.60110
O549        O  0.07370720  0.26051581  0.55604892    -0.52090
C550        C  0.06617681  0.24115507  0.58444760     0.73370
O551        O  0.44219976  0.17384819  0.59538840    -0.71510
O552        O  0.40825968  0.17678812  0.55609344    -0.50190
C553        C  0.41583179  0.16531664  0.58476274     0.74750
O554        O  0.04012808  0.22278135  0.92713671    -0.66840
O555        O  0.07382550  0.26035665  0.96615916    -0.54040
C556        C  0.06642710  0.24107292  0.93755382     0.73130
Zr557      Zr  0.49127364  0.20955589  0.94968418     2.77540
O558        O  0.49179389  0.16411039  0.95160713    -0.97590
O559        O  0.49163300  0.21056487  0.87445931    -0.78410
Zr560      Zr  0.49104898  0.20971737  0.57291790     2.70070
O561        O  0.49092849  0.16395430  0.57130662    -0.79660
O562        O  0.49204419  0.21175258  0.64815097    -0.98740
Zr563      Zr  0.04652266  0.27468377  0.51114565     2.21500
Zr564      Zr  0.43533177  0.21824900  0.51153130     2.11130
O565        O  0.46326231  0.19460360  0.51136273    -2.47430
O566        O  0.01924650  0.22306123  0.51123881    -0.79450
O567        O  0.46267186  0.23218394  0.94900558    -0.71650
O568        O  0.01890889  0.26099473  0.57359397    -2.32600
O569        O  0.01907624  0.26084597  0.94881129    -2.28810
O570        O  0.46243922  0.23235148  0.57402454    -0.73400
H571        H  0.44954456  0.27795795  0.51144740     0.78590
H572        H  0.03137448  0.26732493  0.59753760     0.79680
H573        H  0.45087608  0.17375427  0.51140272     0.81900
H574        H  0.03157726  0.26713840  0.92477329     0.79510
H575        H  0.00099844  0.27501323  0.65641977     0.42550
H576        H  0.47580969  0.21491214  0.65592896     0.41520
H577        H  0.00081646  0.16451384  0.54502736     0.41200
H578        H  0.47398336  0.15053866  0.96701843     0.39130
H579        H  0.48166054  0.22144393  0.86732782     0.42260
H580        H  0.00652247  0.28213288  0.86590372     0.37050
H581        H  0.00401646  0.34007927  0.97635110     0.43160
H582        H  0.47146148  0.32399727  0.55423689     0.39580
H583        H  0.48785337  0.15693308  0.92274760     0.44500
H584        H  0.49697302  0.30559898  0.86791387     0.43220
H585        H  0.48683656  0.33335138  0.59725045     0.43350
H586        H  0.48559614  0.19162461  0.65697392     0.43710
O587        O  0.26589496  0.44712938  0.92754732    -0.75160
O588        O  0.22791905  0.41347977  0.96621753    -0.54070
C589        C  0.24742374  0.42081589  0.93793106     0.78570
O590        O  0.31360749  0.04525457  0.59550171    -0.59760
O591        O  0.31064710  0.07907819  0.55587954    -0.52790
C592        C  0.32198277  0.07158695  0.58487845     0.70580
O593        O  0.26563639  0.44738747  0.59362187    -0.74320
O594        O  0.22792117  0.41367664  0.55483159    -0.54880
C595        C  0.24725126  0.42107675  0.58316114     0.76590
O596        O  0.31398257  0.04532025  0.92580787    -0.59460
O597        O  0.31080417  0.07907307  0.96584284    -0.52580
C598        C  0.32228986  0.07164544  0.93670391     0.73180
Zr599      Zr  0.27897066  0.49631032  0.94904595     2.54710
O600        O  0.32502507  0.49712568  0.95379670    -0.80030
O601        O  0.28008495  0.99630683  0.87375989    -0.93440
Zr602      Zr  0.27882352  0.49637041  0.57189803     2.64680
O603        O  0.32467092  0.49666065  0.56721488    -0.98400
O604        O  0.27954710  0.99588054  0.64713026    -0.80460
O605        O  0.26522241  0.46816408  0.51043852    -0.83820
O606        O  0.29362661  0.02448420  0.51050807    -2.18530
O607        O  0.21850960  0.04533657  0.92630997    -0.67210
O608        O  0.25547685  0.07922221  0.96588726    -0.51770
C609        C  0.23654580  0.07169884  0.93693906     0.71560
O610        O  0.16822743  0.44781523  0.59485471    -0.60110
O611        O  0.17192702  0.41393795  0.55583154    -0.52090
C612        C  0.16009605  0.42145901  0.58444104     0.73370
O613        O  0.21815491  0.04563648  0.59521121    -0.71510
O614        O  0.25533461  0.07941969  0.55563069    -0.50190
C615        C  0.23624665  0.07198007  0.58454981     0.74750
O616        O  0.16843335  0.44771563  0.92700606    -0.66840
O617        O  0.17187085  0.41385935  0.96589885    -0.54040
C618        C  0.16014428  0.42137132  0.93742960     0.73130
Zr619      Zr  0.20456865  0.49645203  0.94934400     2.77540
O620        O  0.15887710  0.49655486  0.95195884    -0.97590
O621        O  0.20520091  0.49606072  0.87410947    -0.78410
Zr622      Zr  0.20450459  0.49658482  0.57265798     2.70070
O623        O  0.15909350  0.49721408  0.57137119    -0.79660
O624        O  0.20563536  0.49575675  0.64787035    -0.98740
Zr625      Zr  0.21350268  0.44080578  0.51062599     2.21500
Zr626      Zr  0.26944787  0.05200037  0.51082125     2.11130
O627        O  0.21774649  0.02443042  0.51101301    -2.47430
O628        O  0.18962562  0.46848474  0.51097584    -0.79450
O629        O  0.25593823  0.02460950  0.94839411    -0.71650
O630        O  0.22745889  0.46831660  0.57304508    -2.32600
O631        O  0.22757604  0.46821995  0.94821439    -2.28810
O632        O  0.25587206  0.02475433  0.57325228    -0.73400
H633        H  0.31445749  0.03708640  0.51041276     0.78590
H634        H  0.22115412  0.45582438  0.59698858     0.79680
H635        H  0.20949911  0.03698489  0.51111963     0.81900
H636        H  0.22131511  0.45570284  0.92423699     0.79510
H637        H  0.25883474  0.48474126  0.65538236     0.42550
H638        H  0.22538133  0.01146162  0.65528631     0.41520
H639        H  0.14937073  0.48662891  0.54575692     0.41200
H640        H  0.16337715  0.01445858  0.96727750     0.39130
H641        H  0.22607164  0.00569916  0.86670695     0.42260
H642        H  0.26084589  0.48008180  0.86546786     0.37050
H643        H  0.32173992  0.48264185  0.97537245     0.43160
H644        H  0.33811815  0.01503711  0.55296453     0.39580
H645        H  0.15567713  0.50047307  0.92314125     0.44500
H646        H  0.29390985  0.48965258  0.86648802     0.43220
H647        H  0.33182222  0.49967689  0.59602523     0.43350
H648        H  0.19262165  0.50302538  0.65691984     0.43710
C649        C  0.25178265  0.11905776  0.78303714    -0.09020
C650        C  0.22646740  0.11312154  0.80454174     0.07170
C651        C  0.20152744  0.10768392  0.78231713    -0.02790
C652        C  0.20232311  0.10838294  0.73897699    -0.07240
C653        C  0.22774326  0.11434636  0.71756256     0.06290
C654        C  0.25262865  0.11982255  0.73993051    -0.02260
Br655      Br  0.28867168  0.12966548  0.71301665    -0.01960
H656        H  0.27114617  0.12358189  0.79995010     0.10200
H657        H  0.18307154  0.10405527  0.72195581     0.08220
Br658      Br  0.16588530  0.09834528  0.80988200    -0.02390
C659        C  0.39747613  0.27767741  0.73811811    -0.09020
C660        C  0.37115746  0.26041681  0.71722047     0.07170
C661        C  0.34566314  0.24338026  0.74071789    -0.02790
C662        C  0.34707848  0.24379870  0.78375195    -0.07240
C663        C  0.37338783  0.26080015  0.80469920     0.06290
C664        C  0.39886450  0.27800423  0.78131359    -0.02260
Br665      Br  0.43603850  0.30333627  0.80584137    -0.01960
H666        H  0.41717547  0.29112481  0.72069205     0.10200
H667        H  0.32742349  0.22992800  0.80102175     0.08220
Br668      Br  0.30840304  0.21710050  0.71694596    -0.02390
C669        C  0.37219304  0.09175149  0.78328748    -0.09020
C670        C  0.37380575  0.11562836  0.80435425     0.07170
C671        C  0.37533477  0.13886688  0.78149611    -0.02790
C672        C  0.37552599  0.13800970  0.73843181    -0.07240
C673        C  0.37390443  0.11419099  0.71730173     0.06290
C674        C  0.37228564  0.09088809  0.74003705    -0.02260
Br675      Br  0.37140599  0.05809255  0.71369112    -0.01960
H676        H  0.37107059  0.07382780  0.80057885     0.10200
H677        H  0.37624341  0.15579294  0.72124477     0.08220
Br678      Br  0.37512244  0.17141874  0.80709292    -0.02390
C679        C  0.08443285  0.21181146  0.78367678    -0.09020
C680        C  0.10961559  0.23214281  0.80462524     0.07170
C681        C  0.13407005  0.25200716  0.78135140    -0.02790
C682        C  0.13302760  0.25105017  0.73823302    -0.07240
C683        C  0.10789932  0.23080511  0.71721394     0.06290
C684        C  0.08338906  0.21095076  0.74037931    -0.02260
Br685      Br  0.04845234  0.18142424  0.71479790    -0.01960
H686        H  0.06553654  0.19637935  0.80111776     0.10200
H687        H  0.15181667  0.26681909  0.72091676     0.08220
Br688      Br  0.16882944  0.28248774  0.80624229    -0.02390
C689        C  0.10575704  0.39839947  0.73908721    -0.09020
C690        C  0.10962110  0.37759346  0.71765970     0.07170
C691        C  0.11321221  0.35698174  0.74011810    -0.02790
C692        C  0.11278524  0.35736700  0.78330651    -0.07240
C693        C  0.10890516  0.37812105  0.80477654     0.06290
C694        C  0.10523057  0.39868970  0.78240595    -0.02260
Br695      Br  0.09821262  0.42663901  0.80973543    -0.01960
H696        H  0.10280904  0.41420980  0.72205614     0.10200
H697        H  0.11587185  0.34161594  0.80028194     0.08220
Br698      Br  0.11991212  0.32860017  0.71326987    -0.02390
C699        C  0.23314185  0.38162955  0.78354562    -0.09020
C700        C  0.25369559  0.37720713  0.80433792     0.07170
C701        C  0.27371373  0.37290318  0.78097992    -0.02790
C702        C  0.27274839  0.37299157  0.73772579    -0.07240
C703        C  0.25218368  0.37745749  0.71697588     0.06290
C704        C  0.23212962  0.38168620  0.74041758    -0.02260
Br705      Br  0.20153406  0.38567526  0.71571158    -0.01960
H706        H  0.21728333  0.38442494  0.80104118     0.10200
H707        H  0.28835804  0.36985692  0.72015318     0.08220
Br708      Br  0.30371496  0.36826069  0.80622344    -0.02390
C709        C  0.25150127  0.87684406  0.17113309     0.03260
C710        C  0.25211853  0.89970157  0.14881582    -0.12890
C711        C  0.24818098  0.89766480  0.10584170     0.00760
C712        C  0.24473132  0.87303149  0.08486653    -0.11410
C713        C  0.24645271  0.85113888  0.10639943     0.03260
C714        C  0.24972266  0.85307484  0.14953100    -0.10830
H715        H  0.25467196  0.91866884  0.16511189     0.08850
H716        H  0.24195511  0.87149042  0.05160490     0.06380
H717        H  0.24996954  0.83564044  0.16638565     0.06230
C718        C  0.25306033  0.87662218  0.35018664     0.03260
C719        C  0.25270629  0.89919564  0.37232737    -0.12890
C720        C  0.24851817  0.89731698  0.41530557     0.00760
C721        C  0.24505766  0.87278535  0.43637036    -0.11410
C722        C  0.24676037  0.85073785  0.41488691     0.03260
C723        C  0.25032578  0.85255171  0.37178534    -0.10830
H724        H  0.25484107  0.91787656  0.35587728     0.08850
H725        H  0.24213283  0.87137143  0.46963478     0.06530
H726        H  0.25008957  0.83478566  0.35497440     0.06230
C727        C  0.10936088  0.87800562  0.35042732     0.03260
C728        C  0.13296664  0.90010061  0.37196472    -0.12890
C729        C  0.13530245  0.89814643  0.41492606     0.00760
C730        C  0.11369120  0.87400010  0.43628583    -0.11410
C731        C  0.08929971  0.85250691  0.41527510     0.03260
C732        C  0.08733773  0.85453198  0.37229547    -0.10830
H733        H  0.15000865  0.91825075  0.35506752     0.08850
H734        H  0.11531656  0.87248442  0.46947237     0.06380
H735        H  0.06902849  0.83750948  0.35567759     0.06230
C736        C  0.10995167  0.87757387  0.17199653     0.03260
C737        C  0.08754170  0.85446427  0.15012729    -0.12890
C738        C  0.08924408  0.85263647  0.10702734     0.00760
C739        C  0.11356302  0.87418144  0.08581144    -0.11410
C740        C  0.13534441  0.89819310  0.10715037     0.03260
C741        C  0.13334913  0.89987056  0.15029708    -0.10830
H742        H  0.06924780  0.83744259  0.16685567     0.08850
H743        H  0.11500803  0.87281066  0.05251961     0.06380
H744        H  0.15051948  0.91791084  0.16714540     0.06230
C745        C  0.10805275  0.73178450  0.17135880     0.03260
C746        C  0.08703436  0.73511520  0.14990754    -0.12890
C747        C  0.08925565  0.73950442  0.10695413     0.00760
C748        C  0.11309959  0.74137521  0.08553346    -0.11410
C749        C  0.13382137  0.73729899  0.10639431     0.03260
C750        C  0.13105987  0.73228786  0.14916037    -0.10830
H751        H  0.06942416  0.73521905  0.16674469     0.08850
H752        H  0.11492500  0.74487818  0.05240391     0.06380
H753        H  0.14739149  0.72974114  0.16548063     0.06230
C754        C  0.10966830  0.73300858  0.35048344     0.03260
C755        C  0.08802010  0.73551084  0.37197510    -0.12890
C756        C  0.08966228  0.73943573  0.41504342     0.00760
C757        C  0.11322381  0.74106116  0.43659101    -0.11410
C758        C  0.13403766  0.73689247  0.41577405     0.03260
C759        C  0.13181204  0.73227842  0.37289911    -0.10830
H760        H  0.07040683  0.73535889  0.35506140     0.08850
H761        H  0.11470723  0.74435692  0.46978066     0.06380
H762        H  0.14801319  0.72929264  0.35669292     0.06230
C763        C  0.37307039  0.61567375  0.34998701     0.03260
C764        C  0.39534896  0.63862324  0.37220360    -0.12890
C765        C  0.39299675  0.64070720  0.41507511     0.00760
C766        C  0.36849786  0.61917332  0.43593145    -0.11410
C767        C  0.34706987  0.59503751  0.41434571     0.03260
C768        C  0.34948125  0.59336514  0.37134750    -0.10830
H769        H  0.41403288  0.65543092  0.35584032     0.08850
H770        H  0.36668944  0.62060756  0.46914753     0.06380
H771        H  0.33246133  0.57530492  0.35433492     0.06230
C772        C  0.37315916  0.61426554  0.17168282     0.03260
C773        C  0.34922935  0.59255742  0.15022031    -0.12890
C774        C  0.34670726  0.59481865  0.10742478     0.00760
C775        C  0.36815578  0.61915931  0.08619709    -0.11410
C776        C  0.39265776  0.64045532  0.10719716     0.03260
C777        C  0.39507117  0.63784235  0.14986122    -0.10830
H778        H  0.33206079  0.57446305  0.16702903     0.08850
H779        H  0.36634074  0.62096171  0.05311205     0.06380
H780        H  0.41361552  0.65462993  0.16640003     0.06230
C781        C  0.37123123  0.75929750  0.17131351     0.03260
C782        C  0.34971258  0.76073468  0.14829995    -0.12890
C783        C  0.34704950  0.75498216  0.10574042     0.00760
C784        C  0.36773739  0.75036551  0.08538388    -0.11410
C785        C  0.39128795  0.75217397  0.10729212     0.03260
C786        C  0.39262141  0.75605545  0.15027945    -0.10830
H787        H  0.33421347  0.76510373  0.16381908     0.08850
H788        H  0.36621609  0.74667076  0.05228373     0.06380
H789        H  0.40992202  0.75575051  0.16740302     0.06230
C790        C  0.37311121  0.75931784  0.35058905     0.03260
C791        C  0.39346567  0.75487927  0.37193897    -0.12890
C792        C  0.39155938  0.75113424  0.41492762     0.00760
C793        C  0.36788394  0.74967010  0.43641653    -0.11410
C794        C  0.34733562  0.75403714  0.41554390     0.03260
C795        C  0.35053899  0.75962862  0.37297465    -0.10830
H796        H  0.41042538  0.75354911  0.35517348     0.08850
H797        H  0.36605494  0.74624349  0.46956010     0.06380
H798        H  0.33471096  0.76310192  0.35690261     0.06230
C799        C  0.22730978  0.61367940  0.35010456     0.03260
C800        C  0.22989810  0.59229797  0.37160854    -0.12890
C801        C  0.23499908  0.59485976  0.41435090     0.00760
C802        C  0.23790377  0.61928205  0.43543408    -0.11410
C803        C  0.23426508  0.64026924  0.41440665     0.03260
C804        C  0.22880397  0.63724892  0.37172315    -0.10830
H805        H  0.22863248  0.57402704  0.35483377     0.08850
H806        H  0.24174627  0.62131855  0.46847553     0.06380
H807        H  0.22687372  0.65381135  0.35500953     0.06230
C808        C  0.22834950  0.61485742  0.17198507     0.03260
C809        C  0.23004008  0.59298528  0.15008859    -0.12890
C810        C  0.23475081  0.59525347  0.10723820     0.00760
C811        C  0.23770153  0.61965409  0.08629880    -0.11410
C812        C  0.23452997  0.64094986  0.10765636     0.03260
C813        C  0.22969321  0.63833775  0.15056588    -0.10830
H814        H  0.22867409  0.57468791  0.16670091     0.08850
H815        H  0.24124037  0.62145215  0.05315063     0.06380
H816        H  0.22816046  0.65512800  0.16752663     0.06230
O817        O  0.26377282  0.81879768  0.09423583    -0.75160
O818        O  0.22605229  0.81445980  0.05541693    -0.54070
C819        C  0.24528968  0.82652072  0.08388185     0.78570
O820        O  0.31386292  0.77026769  0.42708931    -0.59760
O821        O  0.31051430  0.73313885  0.46633430    -0.52790
C822        C  0.32233696  0.75241711  0.43784758     0.70580
O823        O  0.26378220  0.81818807  0.42676329    -0.74320
O824        O  0.22620612  0.81430231  0.46610774    -0.54880
C825        C  0.24542231  0.82612464  0.43738983     0.76590
O826        O  0.31388085  0.77123738  0.09353315    -0.59460
O827        O  0.31048508  0.73363907  0.05495701    -0.52580
C828        C  0.32229566  0.75324127  0.08310797     0.73180
Zr829      Zr  0.27744232  0.78338461  0.07194446     2.54710
O830        O  0.32270085  0.82957556  0.06805353    -0.80030
O831        O  0.27790212  0.78300943  0.14722292    -0.93440
Zr832      Zr  0.27752582  0.78291919  0.44891688     2.64680
O833        O  0.32261749  0.82933106  0.45193508    -0.98400
O834        O  0.27783936  0.78256070  0.37364779    -0.80460
O835        O  0.26386551  0.79762118  0.01041848    -0.83820
O836        O  0.29228974  0.77001104  0.01046050    -2.18530
O837        O  0.21760308  0.67367074  0.09583455    -0.67210
O838        O  0.25486533  0.67725054  0.05610143    -0.51770
C839        C  0.23585328  0.66561576  0.08513566     0.71560
O840        O  0.16664969  0.71990363  0.42816226    -0.60110
O841        O  0.17051611  0.75779254  0.46652821    -0.52090
C842        C  0.15855391  0.73818296  0.43844231     0.73370
O843        O  0.21735847  0.67297331  0.42655324    -0.71510
O844        O  0.25480198  0.67692234  0.46562702    -0.50190
C845        C  0.23566090  0.66503526  0.43697021     0.74750
O846        O  0.16680811  0.72061810  0.09424421    -0.66840
O847        O  0.17043236  0.75802418  0.05536886    -0.54040
C848        C  0.15855955  0.73868474  0.08377060     0.73130
Zr849      Zr  0.20341611  0.70838097  0.07257114     2.77540
O850        O  0.15801234  0.66221470  0.07045206    -0.97590
O851        O  0.20380049  0.70966824  0.14779665    -0.78410
Zr852      Zr  0.20344616  0.70804411  0.44938302     2.70070
O853        O  0.15839579  0.66158142  0.45129906    -0.79660
O854        O  0.20419897  0.70993899  0.37415773    -0.98740
Zr855      Zr  0.21218959  0.77290761  0.01080864     2.21500
Zr856      Zr  0.26868380  0.71833065  0.01071246     2.11130
O857        O  0.21693765  0.69375429  0.01094335    -2.47430
O858        O  0.18849106  0.72129147  0.01101970    -0.79450
O859        O  0.25484521  0.73203961  0.07313553    -0.71650
O860        O  0.22614506  0.75927245  0.44834658    -2.32600
O861        O  0.22607967  0.75964866  0.07324333    -2.28810
O862        O  0.25487691  0.73156210  0.44821228    -0.73400
H863        H  0.31315272  0.77855483  0.01041271     0.78590
H864        H  0.21970681  0.76526927  0.42442436     0.79680
H865        H  0.20885045  0.67296183  0.01097064     0.81900
H866        H  0.21966799  0.76581013  0.09721255     0.79510
H867        H  0.25727555  0.77470667  0.36575688     0.42550
H868        H  0.22395698  0.71415829  0.36631983     0.41520
H869        H  0.14867826  0.66224698  0.47712541     0.41200
H870        H  0.16266624  0.64899785  0.05489757     0.39130
H871        H  0.22465159  0.71963632  0.15516459     0.42260
H872        H  0.25860831  0.77984823  0.15564293     0.37050
H873        H  0.31972890  0.84006529  0.04512126     0.43160
H874        H  0.33616920  0.82535463  0.46762931     0.39580
H875        H  0.15496382  0.65502421  0.09925980     0.44500
H876        H  0.29168940  0.80336000  0.15513723     0.43220
H877        H  0.33016985  0.83273008  0.42324128     0.43350
H878        H  0.19126125  0.68960104  0.36531423     0.43710
O879        O  0.03958698  0.81971070  0.42784548    -0.75160
O880        O  0.07352137  0.81620415  0.46648186    -0.54070
C881        C  0.06598040  0.82791134  0.43807081     0.78570
O882        O  0.44107603  0.76891924  0.09610106    -0.59760
O883        O  0.40756528  0.73184369  0.05619798    -0.52790
C884        C  0.41478834  0.75072881  0.08523970     0.70580
O885        O  0.03946666  0.81981306  0.09498153    -0.74320
O886        O  0.07341239  0.81634754  0.05565597    -0.54880
C887        C  0.06586960  0.82805034  0.08435227     0.76590
O888        O  0.44122646  0.76815168  0.42663882    -0.59460
O889        O  0.40752221  0.73128113  0.46669353    -0.52580
C890        C  0.41488499  0.74992725  0.43742203     0.73180
Zr891      Zr  0.49052160  0.78356511  0.44995663     2.54710
O892        O  0.48903193  0.82841220  0.45554230    -0.80030
O893        O  0.49033090  0.78508135  0.37470801    -0.93440
Zr894      Zr  0.49042473  0.78376935  0.07288346     2.64680
O895        O  0.48988188  0.82914096  0.06840551    -0.98400
O896        O  0.49063134  0.78528171  0.14811220    -0.80460
O897        O  0.01868850  0.79849366  0.01131782    -0.83820
O898        O  0.46235002  0.76999724  0.01148713    -2.18530
O899        O  0.44251441  0.67396671  0.42691445    -0.67210
O900        O  0.40847217  0.67670958  0.46687191    -0.51770
C901        C  0.41612251  0.66537950  0.43780350     0.71560
O902        O  0.03983492  0.72277192  0.09473722    -0.60110
O903        O  0.07370721  0.76051581  0.05604892    -0.52090
C904        C  0.06617681  0.74115507  0.08444760     0.73370
O905        O  0.44219976  0.67384820  0.09538840    -0.71510
O906        O  0.40825968  0.67678812  0.05609344    -0.50190
C907        C  0.41583179  0.66531664  0.08476275     0.74750
O908        O  0.04012808  0.72278136  0.42713671    -0.66840
O909        O  0.07382551  0.76035666  0.46615916    -0.54040
C910        C  0.06642710  0.74107292  0.43755382     0.73130
Zr911      Zr  0.49127364  0.70955589  0.44968417     2.77540
O912        O  0.49179389  0.66411039  0.45160712    -0.97590
O913        O  0.49163301  0.71056489  0.37445931    -0.78410
Zr914      Zr  0.49104898  0.70971737  0.07291791     2.70070
O915        O  0.49092849  0.66395431  0.07130664    -0.79660
O916        O  0.49204419  0.71175260  0.14815098    -0.98740
Zr917      Zr  0.04652266  0.77468377  0.01114565     2.21500
Zr918      Zr  0.43533177  0.71824900  0.01153130     2.11130
O919        O  0.46326231  0.69460360  0.01136274    -2.47430
O920        O  0.01924651  0.72306123  0.01123882    -0.79450
O921        O  0.46267186  0.73218395  0.44900558    -0.71650
O922        O  0.01890889  0.76099473  0.07359397    -2.32600
O923        O  0.01907624  0.76084597  0.44881129    -2.28810
O924        O  0.46243922  0.73235149  0.07402454    -0.73400
H925        H  0.44954456  0.77795795  0.01144739     0.78590
H926        H  0.03137449  0.76732494  0.09753760     0.79680
H927        H  0.45087608  0.67375427  0.01140273     0.81900
H928        H  0.03157726  0.76713841  0.42477330     0.79510
H929        H  0.00099844  0.77501325  0.15641977     0.42550
H930        H  0.47580970  0.71491215  0.15592897     0.41520
H931        H  0.00081648  0.66451385  0.04502739     0.41200
H932        H  0.47398336  0.65053866  0.46701841     0.39130
H933        H  0.48166054  0.72144395  0.36732782     0.42260
H934        H  0.00652247  0.78213289  0.36590373     0.37050
H935        H  0.00401648  0.84007928  0.47635110     0.43160
H936        H  0.47146148  0.82399727  0.05423688     0.39580
H937        H  0.48785336  0.65693309  0.42274758     0.44500
H938        H  0.49697303  0.80559899  0.36791388     0.43220
H939        H  0.48683656  0.83335138  0.09725044     0.43350
H940        H  0.48559614  0.69162462  0.15697393     0.43710
O941        O  0.26589496  0.94712938  0.42754732    -0.75160
O942        O  0.22791905  0.91347978  0.46621753    -0.54070
C943        C  0.24742375  0.92081589  0.43793106     0.78570
O944        O  0.31360748  0.54525457  0.09550171    -0.59760
O945        O  0.31064710  0.57907818  0.05587954    -0.52790
C946        C  0.32198277  0.57158695  0.08487844     0.70580
O947        O  0.26563639  0.94738747  0.09362187    -0.74320
O948        O  0.22792116  0.91367664  0.05483159    -0.54880
C949        C  0.24725125  0.92107675  0.08316115     0.76590
O950        O  0.31398257  0.54532025  0.42580787    -0.59460
O951        O  0.31080417  0.57907307  0.46584284    -0.52580
C952        C  0.32228986  0.57164544  0.43670391     0.73180
Zr953      Zr  0.27897066  0.99631033  0.44904595     2.54710
O954        O  0.32502507  0.99712568  0.45379669    -0.80030
O955        O  0.28008497  0.49630684  0.37375989    -0.93440
Zr956      Zr  0.27882352  0.99637041  0.07189803     2.64680
O957        O  0.32467092  0.99666064  0.06721488    -0.98400
O958        O  0.27954710  0.49588054  0.14713026    -0.80460
O959        O  0.26522241  0.96816408  0.01043852    -0.83820
O960        O  0.29362661  0.52448420  0.01050807    -2.18530
O961        O  0.21850960  0.54533656  0.42630997    -0.67210
O962        O  0.25547685  0.57922221  0.46588726    -0.51770
C963        C  0.23654580  0.57169884  0.43693906     0.71560
O964        O  0.16822743  0.94781524  0.09485471    -0.60110
O965        O  0.17192701  0.91393795  0.05583154    -0.52090
C966        C  0.16009605  0.92145901  0.08444104     0.73370
O967        O  0.21815490  0.54563647  0.09521121    -0.71510
O968        O  0.25533461  0.57941968  0.05563069    -0.50190
C969        C  0.23624665  0.57198007  0.08454980     0.74750
O970        O  0.16843335  0.94771564  0.42700606    -0.66840
O971        O  0.17187085  0.91385935  0.46589885    -0.54040
C972        C  0.16014429  0.92137132  0.43742960     0.73130
Zr973      Zr  0.20456865  0.99645203  0.44934401     2.77540
O974        O  0.15887710  0.99655487  0.45195886    -0.97590
O975        O  0.20520089  0.99606072  0.37410948    -0.78410
Zr976      Zr  0.20450459  0.99658482  0.07265799     2.70070
O977        O  0.15909351  0.99721408  0.07137119    -0.79660
O978        O  0.20563536  0.99575676  0.14787035    -0.98740
Zr979      Zr  0.21350267  0.94080578  0.01062599     2.21500
Zr980      Zr  0.26944787  0.55200037  0.01082125     2.11130
O981        O  0.21774649  0.52443041  0.01101300    -2.47430
O982        O  0.18962562  0.96848474  0.01097584    -0.79450
O983        O  0.25593823  0.52460950  0.44839411    -0.71650
O984        O  0.22745889  0.96831660  0.07304508    -2.32600
O985        O  0.22757604  0.96821995  0.44821439    -2.28810
O986        O  0.25587206  0.52475433  0.07325228    -0.73400
H987        H  0.31445748  0.53708640  0.01041276     0.78590
H988        H  0.22115412  0.95582438  0.09698858     0.79680
H989        H  0.20949911  0.53698489  0.01111962     0.81900
H990        H  0.22131511  0.95570285  0.42423699     0.79510
H991        H  0.25883474  0.98474126  0.15538236     0.42550
H992        H  0.22538132  0.51146162  0.15528630     0.41520
H993        H  0.14937074  0.98662892  0.04575692     0.41200
H994        H  0.16337715  0.51445857  0.46727749     0.39130
H995        H  0.22607164  0.50569915  0.36670695     0.42260
H996        H  0.26084588  0.98008180  0.36546786     0.37050
H997        H  0.32173993  0.98264187  0.47537245     0.43160
H998        H  0.33811815  0.51503711  0.05296453     0.39580
H999        H  0.15567712  0.00047306  0.42314128     0.44500
H1000       H  0.29390984  0.98965259  0.36648801     0.43220
H1001       H  0.33182222  0.99967689  0.09602523     0.43350
H1002       H  0.19262165  0.00302538  0.15691984     0.43710
C1003       C  0.25178263  0.61905771  0.28303714    -0.09020
C1004       C  0.22646739  0.61312153  0.30454174     0.07170
C1005       C  0.20152745  0.60768395  0.28231712    -0.02790
C1006       C  0.20232311  0.60838297  0.23897699    -0.07240
C1007       C  0.22774326  0.61434635  0.21756256     0.06290
C1008       C  0.25262864  0.61982250  0.23993051    -0.02260
Br1009     Br  0.28867165  0.62966538  0.21301665    -0.01960
H1010       H  0.27114614  0.62358181  0.29995010     0.10200
H1011       H  0.18307155  0.60405533  0.22195581     0.08220
Br1012     Br  0.16588532  0.59834537  0.30988200    -0.02390
C1013       C  0.39747613  0.77767742  0.23811811    -0.09020
C1014       C  0.37115746  0.76041681  0.21722047     0.07170
C1015       C  0.34566314  0.74338027  0.24071788    -0.02790
C1016       C  0.34707848  0.74379870  0.28375195    -0.07240
C1017       C  0.37338783  0.76080015  0.30469919     0.06290
C1018       C  0.39886450  0.77800423  0.28131359    -0.02260
Br1019     Br  0.43603850  0.80333627  0.30584137    -0.01960
H1020       H  0.41717548  0.79112482  0.22069205     0.10200
H1021       H  0.32742349  0.72992801  0.30102174     0.08220
Br1022     Br  0.30840304  0.71710051  0.21694596    -0.02390
C1023       C  0.37219304  0.59175151  0.28328748    -0.09020
C1024       C  0.37380574  0.61562837  0.30435425     0.07170
C1025       C  0.37533474  0.63886687  0.28149611    -0.02790
C1026       C  0.37552595  0.63800970  0.23843181    -0.07240
C1027       C  0.37390441  0.61419100  0.21730173     0.06290
C1028       C  0.37228564  0.59088810  0.24003705    -0.02260
Br1029     Br  0.37140601  0.55809257  0.21369112    -0.01960
H1030       H  0.37107060  0.57382782  0.30057885     0.10200
H1031       H  0.37624336  0.65579294  0.22124477     0.08220
Br1032     Br  0.37512237  0.67141872  0.30709293    -0.02390
C1033       C  0.08443285  0.71181147  0.28367678    -0.09020
C1034       C  0.10961560  0.73214282  0.30462524     0.07170
C1035       C  0.13407006  0.75200717  0.28135140    -0.02790
C1036       C  0.13302761  0.75105018  0.23823302    -0.07240
C1037       C  0.10789932  0.73080512  0.21721394     0.06290
C1038       C  0.08338907  0.71095077  0.24037931    -0.02260
Br1039     Br  0.04845235  0.68142425  0.21479790    -0.01960
H1040       H  0.06553655  0.69637937  0.30111776     0.10200
H1041       H  0.15181668  0.76681910  0.22091676     0.08220
Br1042     Br  0.16882944  0.78248775  0.30624229    -0.02390
C1043       C  0.10575705  0.89839948  0.23908722    -0.09020
C1044       C  0.10962110  0.87759346  0.21765971     0.07170
C1045       C  0.11321221  0.85698174  0.24011810    -0.02790
C1046       C  0.11278524  0.85736700  0.28330652    -0.07240
C1047       C  0.10890516  0.87812105  0.30477654     0.06290
C1048       C  0.10523058  0.89868971  0.28240595    -0.02260
Br1049     Br  0.09821264  0.92663903  0.30973543    -0.01960
H1050       H  0.10280905  0.91420981  0.22205614     0.10200
H1051       H  0.11587184  0.84161593  0.30028194     0.08220
Br1052     Br  0.11991211  0.82860017  0.21326987    -0.02390
C1053       C  0.23314186  0.88162955  0.28354562    -0.09020
C1054       C  0.25369560  0.87720714  0.30433792     0.07170
C1055       C  0.27371375  0.87290319  0.28097992    -0.02790
C1056       C  0.27274840  0.87299158  0.23772579    -0.07240
C1057       C  0.25218369  0.87745749  0.21697588     0.06290
C1058       C  0.23212962  0.88168620  0.24041758    -0.02260
Br1059     Br  0.20153406  0.88567526  0.21571159    -0.01960
H1060       H  0.21728333  0.88442494  0.30104119     0.10200
H1061       H  0.28835805  0.86985694  0.22015317     0.08220
Br1062     Br  0.30371498  0.86826071  0.30622344    -0.02390
C1063       C  0.25150127  0.87684406  0.67113309     0.03260
C1064       C  0.25211854  0.89970158  0.64881582    -0.12890
C1065       C  0.24818099  0.89766480  0.60584170     0.00760
C1066       C  0.24473132  0.87303149  0.58486653    -0.11410
C1067       C  0.24645271  0.85113888  0.60639943     0.03260
C1068       C  0.24972266  0.85307484  0.64953100    -0.10830
H1069       H  0.25467197  0.91866884  0.66511189     0.08850
H1070       H  0.24195511  0.87149042  0.55160490     0.06380
H1071       H  0.24996954  0.83564044  0.66638565     0.06230
C1072       C  0.25306032  0.87662217  0.85018664     0.03260
C1073       C  0.25270628  0.89919563  0.87232737    -0.12890
C1074       C  0.24851816  0.89731698  0.91530557     0.00760
C1075       C  0.24505766  0.87278535  0.93637036    -0.11410
C1076       C  0.24676036  0.85073785  0.91488691     0.03260
C1077       C  0.25032577  0.85255170  0.87178534    -0.10830
H1078       H  0.25484106  0.91787656  0.85587727     0.08850
H1079       H  0.24213283  0.87137143  0.96963477     0.06530
H1080       H  0.25008956  0.83478566  0.85497440     0.06230
C1081       C  0.10936088  0.87800562  0.85042732     0.03260
C1082       C  0.13296663  0.90010061  0.87196472    -0.12890
C1083       C  0.13530244  0.89814643  0.91492606     0.00760
C1084       C  0.11369120  0.87400010  0.93628583    -0.11410
C1085       C  0.08929970  0.85250691  0.91527510     0.03260
C1086       C  0.08733772  0.85453198  0.87229547    -0.10830
H1087       H  0.15000865  0.91825076  0.85506752     0.08850
H1088       H  0.11531655  0.87248442  0.96947237     0.06380
H1089       H  0.06902849  0.83750948  0.85567759     0.06230
C1090       C  0.10995167  0.87757387  0.67199654     0.03260
C1091       C  0.08754170  0.85446427  0.65012730    -0.12890
C1092       C  0.08924408  0.85263647  0.60702734     0.00760
C1093       C  0.11356303  0.87418144  0.58581144    -0.11410
C1094       C  0.13534441  0.89819310  0.60715037     0.03260
C1095       C  0.13334913  0.89987056  0.65029708    -0.10830
H1096       H  0.06924781  0.83744259  0.66685567     0.08850
H1097       H  0.11500803  0.87281066  0.55251961     0.06380
H1098       H  0.15051949  0.91791084  0.66714540     0.06230
C1099       C  0.10805275  0.73178450  0.67135880     0.03260
C1100       C  0.08703436  0.73511519  0.64990754    -0.12890
C1101       C  0.08925565  0.73950442  0.60695413     0.00760
C1102       C  0.11309959  0.74137521  0.58553346    -0.11410
C1103       C  0.13382137  0.73729899  0.60639431     0.03260
C1104       C  0.13105987  0.73228786  0.64916037    -0.10830
H1105       H  0.06942416  0.73521905  0.66674469     0.08850
H1106       H  0.11492500  0.74487818  0.55240391     0.06380
H1107       H  0.14739149  0.72974114  0.66548063     0.06230
C1108       C  0.10966830  0.73300857  0.85048344     0.03260
C1109       C  0.08802010  0.73551084  0.87197510    -0.12890
C1110       C  0.08966228  0.73943573  0.91504342     0.00760
C1111       C  0.11322381  0.74106116  0.93659101    -0.11410
C1112       C  0.13403766  0.73689247  0.91577405     0.03260
C1113       C  0.13181204  0.73227842  0.87289912    -0.10830
H1114       H  0.07040683  0.73535888  0.85506140     0.08850
H1115       H  0.11470723  0.74435692  0.96978066     0.06380
H1116       H  0.14801319  0.72929264  0.85669292     0.06230
C1117       C  0.37307040  0.61567375  0.84998701     0.03260
C1118       C  0.39534896  0.63862323  0.87220360    -0.12890
C1119       C  0.39299675  0.64070719  0.91507511     0.00760
C1120       C  0.36849786  0.61917332  0.93593145    -0.11410
C1121       C  0.34706987  0.59503750  0.91434571     0.03260
C1122       C  0.34948126  0.59336514  0.87134750    -0.10830
H1123       H  0.41403288  0.65543092  0.85584032     0.08850
H1124       H  0.36668944  0.62060756  0.96914753     0.06380
H1125       H  0.33246134  0.57530491  0.85433492     0.06230
C1126       C  0.37315916  0.61426554  0.67168282     0.03260
C1127       C  0.34922935  0.59255743  0.65022031    -0.12890
C1128       C  0.34670726  0.59481865  0.60742478     0.00760
C1129       C  0.36815578  0.61915932  0.58619709    -0.11410
C1130       C  0.39265776  0.64045532  0.60719716     0.03260
C1131       C  0.39507117  0.63784235  0.64986122    -0.10830
H1132       H  0.33206079  0.57446305  0.66702904     0.08850
H1133       H  0.36634074  0.62096171  0.55311205     0.06380
H1134       H  0.41361552  0.65462993  0.66640003     0.06230
C1135       C  0.37123122  0.75929750  0.67131351     0.03260
C1136       C  0.34971258  0.76073468  0.64829995    -0.12890
C1137       C  0.34704949  0.75498216  0.60574042     0.00760
C1138       C  0.36773739  0.75036550  0.58538388    -0.11410
C1139       C  0.39128795  0.75217397  0.60729212     0.03260
C1140       C  0.39262140  0.75605545  0.65027945    -0.10830
H1141       H  0.33421347  0.76510373  0.66381908     0.08850
H1142       H  0.36621608  0.74667075  0.55228373     0.06380
H1143       H  0.40992202  0.75575051  0.66740302     0.06230
C1144       C  0.37311122  0.75931785  0.85058905     0.03260
C1145       C  0.39346567  0.75487927  0.87193897    -0.12890
C1146       C  0.39155938  0.75113424  0.91492762     0.00760
C1147       C  0.36788394  0.74967010  0.93641653    -0.11410
C1148       C  0.34733562  0.75403715  0.91554390     0.03260
C1149       C  0.35053899  0.75962863  0.87297465    -0.10830
H1150       H  0.41042538  0.75354912  0.85517348     0.08850
H1151       H  0.36605494  0.74624349  0.96956011     0.06380
H1152       H  0.33471096  0.76310192  0.85690262     0.06230
C1153       C  0.22730978  0.61367941  0.85010456     0.03260
C1154       C  0.22989810  0.59229798  0.87160854    -0.12890
C1155       C  0.23499908  0.59485976  0.91435090     0.00760
C1156       C  0.23790377  0.61928205  0.93543409    -0.11410
C1157       C  0.23426508  0.64026924  0.91440666     0.03260
C1158       C  0.22880398  0.63724893  0.87172315    -0.10830
H1159       H  0.22863248  0.57402704  0.85483377     0.08850
H1160       H  0.24174627  0.62131855  0.96847553     0.06380
H1161       H  0.22687373  0.65381135  0.85500953     0.06230
C1162       C  0.22834950  0.61485742  0.67198507     0.03260
C1163       C  0.23004008  0.59298528  0.65008859    -0.12890
C1164       C  0.23475081  0.59525347  0.60723820     0.00760
C1165       C  0.23770152  0.61965409  0.58629880    -0.11410
C1166       C  0.23452997  0.64094986  0.60765637     0.03260
C1167       C  0.22969321  0.63833775  0.65056588    -0.10830
H1168       H  0.22867409  0.57468791  0.66670092     0.08850
H1169       H  0.24124037  0.62145215  0.55315063     0.06380
H1170       H  0.22816046  0.65512800  0.66752663     0.06230
O1171       O  0.26377282  0.81879768  0.59423583    -0.75160
O1172       O  0.22605229  0.81445980  0.55541693    -0.54070
C1173       C  0.24528968  0.82652072  0.58388185     0.78570
O1174       O  0.31386292  0.77026770  0.92708932    -0.59760
O1175       O  0.31051430  0.73313885  0.96633430    -0.52790
C1176       C  0.32233696  0.75241711  0.93784758     0.70580
O1177       O  0.26378220  0.81818807  0.92676329    -0.74320
O1178       O  0.22620612  0.81430231  0.96610774    -0.54880
C1179       C  0.24542231  0.82612464  0.93738983     0.76590
O1180       O  0.31388084  0.77123738  0.59353315    -0.59460
O1181       O  0.31048508  0.73363907  0.55495701    -0.52580
C1182       C  0.32229566  0.75324127  0.58310797     0.73180
Zr1183     Zr  0.27744232  0.78338461  0.57194446     2.54710
O1184       O  0.32270085  0.82957556  0.56805353    -0.80030
O1185       O  0.27790212  0.78300943  0.64722292    -0.93440
Zr1186     Zr  0.27752582  0.78291919  0.94891689     2.64680
O1187       O  0.32261749  0.82933107  0.95193508    -0.98400
O1188       O  0.27783936  0.78256070  0.87364779    -0.80460
O1189       O  0.26386551  0.79762118  0.51041848    -0.83820
O1190       O  0.29228973  0.77001104  0.51046050    -2.18530
O1191       O  0.21760308  0.67367073  0.59583455    -0.67210
O1192       O  0.25486533  0.67725054  0.55610143    -0.51770
C1193       C  0.23585327  0.66561576  0.58513566     0.71560
O1194       O  0.16664969  0.71990363  0.92816226    -0.60110
O1195       O  0.17051611  0.75779253  0.96652822    -0.52090
C1196       C  0.15855391  0.73818296  0.93844231     0.73370
O1197       O  0.21735847  0.67297331  0.92655324    -0.71510
O1198       O  0.25480198  0.67692234  0.96562702    -0.50190
C1199       C  0.23566090  0.66503526  0.93697021     0.74750
O1200       O  0.16680811  0.72061810  0.59424421    -0.66840
O1201       O  0.17043236  0.75802418  0.55536886    -0.54040
C1202       C  0.15855955  0.73868474  0.58377060     0.73130
Zr1203     Zr  0.20341611  0.70838097  0.57257114     2.77540
O1204       O  0.15801234  0.66221470  0.57045205    -0.97590
O1205       O  0.20380048  0.70966823  0.64779665    -0.78410
Zr1206     Zr  0.20344616  0.70804411  0.94938302     2.70070
O1207       O  0.15839579  0.66158142  0.95129907    -0.79660
O1208       O  0.20419897  0.70993899  0.87415773    -0.98740
Zr1209     Zr  0.21218959  0.77290761  0.51080864     2.21500
Zr1210     Zr  0.26868380  0.71833065  0.51071246     2.11130
O1211       O  0.21693765  0.69375429  0.51094334    -2.47430
O1212       O  0.18849106  0.72129147  0.51101970    -0.79450
O1213       O  0.25484521  0.73203961  0.57313553    -0.71650
O1214       O  0.22614506  0.75927245  0.94834658    -2.32600
O1215       O  0.22607966  0.75964866  0.57324333    -2.28810
O1216       O  0.25487691  0.73156211  0.94821228    -0.73400
H1217       H  0.31315272  0.77855483  0.51041271     0.78590
H1218       H  0.21970681  0.76526927  0.92442437     0.79680
H1219       H  0.20885044  0.67296183  0.51097063     0.81900
H1220       H  0.21966799  0.76581013  0.59721255     0.79510
H1221       H  0.25727555  0.77470667  0.86575688     0.42550
H1222       H  0.22395698  0.71415829  0.86631983     0.41520
H1223       H  0.14867826  0.66224698  0.97712542     0.41200
H1224       H  0.16266624  0.64899785  0.55489757     0.39130
H1225       H  0.22465158  0.71963633  0.65516459     0.42260
H1226       H  0.25860832  0.77984824  0.65564293     0.37050
H1227       H  0.31972890  0.84006529  0.54512126     0.43160
H1228       H  0.33616920  0.82535463  0.96762931     0.39580
H1229       H  0.15496381  0.65502421  0.59925979     0.44500
H1230       H  0.29168940  0.80335999  0.65513722     0.43220
H1231       H  0.33016985  0.83273008  0.92324128     0.43350
H1232       H  0.19126125  0.68960104  0.86531423     0.43710
O1233       O  0.03958697  0.81971070  0.92784548    -0.75160
O1234       O  0.07352137  0.81620415  0.96648186    -0.54070
C1235       C  0.06598039  0.82791134  0.93807081     0.78570
O1236       O  0.44107602  0.76891924  0.59610106    -0.59760
O1237       O  0.40756528  0.73184369  0.55619799    -0.52790
C1238       C  0.41478834  0.75072881  0.58523970     0.70580
O1239       O  0.03946666  0.81981306  0.59498153    -0.74320
O1240       O  0.07341239  0.81634754  0.55565597    -0.54880
C1241       C  0.06586960  0.82805034  0.58435227     0.76590
O1242       O  0.44122646  0.76815168  0.92663882    -0.59460
O1243       O  0.40752221  0.73128112  0.96669353    -0.52580
C1244       C  0.41488499  0.74992725  0.93742203     0.73180
Zr1245     Zr  0.49052160  0.78356510  0.94995663     2.54710
O1246       O  0.48903193  0.82841220  0.95554228    -0.80030
O1247       O  0.49033090  0.78508134  0.87470800    -0.93440
Zr1248     Zr  0.49042473  0.78376935  0.57288347     2.64680
O1249       O  0.48988188  0.82914096  0.56840552    -0.98400
O1250       O  0.49063134  0.78528170  0.64811221    -0.80460
O1251       O  0.01868850  0.79849366  0.51131782    -0.83820
O1252       O  0.46235002  0.76999725  0.51148714    -2.18530
O1253       O  0.44251441  0.67396671  0.92691446    -0.67210
O1254       O  0.40847218  0.67670958  0.96687191    -0.51770
C1255       C  0.41612251  0.66537950  0.93780350     0.71560
O1256       O  0.03983492  0.72277192  0.59473722    -0.60110
O1257       O  0.07370721  0.76051581  0.55604892    -0.52090
C1258       C  0.06617681  0.74115507  0.58444760     0.73370
O1259       O  0.44219976  0.67384820  0.59538840    -0.71510
O1260       O  0.40825968  0.67678812  0.55609344    -0.50190
C1261       C  0.41583179  0.66531664  0.58476274     0.74750
O1262       O  0.04012808  0.72278136  0.92713672    -0.66840
O1263       O  0.07382551  0.76035666  0.96615916    -0.54040
C1264       C  0.06642710  0.74107292  0.93755382     0.73130
Zr1265     Zr  0.49127364  0.70955589  0.94968418     2.77540
O1266       O  0.49179389  0.66411038  0.95160714    -0.97590
O1267       O  0.49163301  0.71056487  0.87445931    -0.78410
Zr1268     Zr  0.49104898  0.70971737  0.57291790     2.70070
O1269       O  0.49092849  0.66395431  0.57130663    -0.79660
O1270       O  0.49204420  0.71175259  0.64815098    -0.98740
Zr1271     Zr  0.04652266  0.77468377  0.51114565     2.21500
Zr1272     Zr  0.43533177  0.71824900  0.51153130     2.11130
O1273       O  0.46326231  0.69460360  0.51136273    -2.47430
O1274       O  0.01924651  0.72306123  0.51123881    -0.79450
O1275       O  0.46267186  0.73218394  0.94900558    -0.71650
O1276       O  0.01890889  0.76099473  0.57359397    -2.32600
O1277       O  0.01907624  0.76084597  0.94881129    -2.28810
O1278       O  0.46243922  0.73235148  0.57402455    -0.73400
H1279       H  0.44954455  0.77795795  0.51144740     0.78590
H1280       H  0.03137449  0.76732494  0.59753760     0.79680
H1281       H  0.45087608  0.67375427  0.51140273     0.81900
H1282       H  0.03157726  0.76713840  0.92477329     0.79510
H1283       H  0.00099845  0.77501325  0.65641977     0.42550
H1284       H  0.47580970  0.71491214  0.65592897     0.41520
H1285       H  0.00081646  0.66451385  0.54502737     0.41200
H1286       H  0.47398336  0.65053866  0.96701843     0.39130
H1287       H  0.48166056  0.72144394  0.86732781     0.42260
H1288       H  0.00652247  0.78213289  0.86590372     0.37050
H1289       H  0.00401648  0.84007928  0.97635109     0.43160
H1290       H  0.47146148  0.82399728  0.55423688     0.39580
H1291       H  0.48785337  0.65693308  0.92274761     0.44500
H1292       H  0.49697303  0.80559898  0.86791387     0.43220
H1293       H  0.48683655  0.83335138  0.59725046     0.43350
H1294       H  0.48559614  0.69162461  0.65697393     0.43710
O1295       O  0.26589496  0.94712938  0.92754732    -0.75160
O1296       O  0.22791904  0.91347978  0.96621753    -0.54070
C1297       C  0.24742374  0.92081589  0.93793106     0.78570
O1298       O  0.31360748  0.54525457  0.59550171    -0.59760
O1299       O  0.31064710  0.57907819  0.55587954    -0.52790
C1300       C  0.32198277  0.57158695  0.58487844     0.70580
O1301       O  0.26563639  0.94738747  0.59362187    -0.74320
O1302       O  0.22792117  0.91367664  0.55483159    -0.54880
C1303       C  0.24725126  0.92107675  0.58316114     0.76590
O1304       O  0.31398257  0.54532025  0.92580787    -0.59460
O1305       O  0.31080417  0.57907307  0.96584284    -0.52580
C1306       C  0.32228986  0.57164544  0.93670391     0.73180
Zr1307     Zr  0.27897066  0.99631032  0.94904595     2.54710
O1308       O  0.32502507  0.99712568  0.95379669    -0.80030
O1309       O  0.28008496  0.49630684  0.87375989    -0.93440
Zr1310     Zr  0.27882353  0.99637041  0.57189803     2.64680
O1311       O  0.32467093  0.99666065  0.56721487    -0.98400
O1312       O  0.27954710  0.49588054  0.64713027    -0.80460
O1313       O  0.26522241  0.96816408  0.51043852    -0.83820
O1314       O  0.29362661  0.52448420  0.51050808    -2.18530
O1315       O  0.21850960  0.54533657  0.92630997    -0.67210
O1316       O  0.25547685  0.57922221  0.96588726    -0.51770
C1317       C  0.23654580  0.57169884  0.93693906     0.71560
O1318       O  0.16822743  0.94781524  0.59485472    -0.60110
O1319       O  0.17192702  0.91393795  0.55583154    -0.52090
C1320       C  0.16009606  0.92145901  0.58444104     0.73370
O1321       O  0.21815490  0.54563647  0.59521121    -0.71510
O1322       O  0.25533460  0.57941968  0.55563069    -0.50190
C1323       C  0.23624665  0.57198007  0.58454981     0.74750
O1324       O  0.16843335  0.94771564  0.92700606    -0.66840
O1325       O  0.17187085  0.91385935  0.96589885    -0.54040
C1326       C  0.16014428  0.92137132  0.93742960     0.73130
Zr1327     Zr  0.20456865  0.99645203  0.94934401     2.77540
O1328       O  0.15887710  0.99655487  0.95195884    -0.97590
O1329       O  0.20520091  0.99606072  0.87410948    -0.78410
Zr1330     Zr  0.20450459  0.99658482  0.57265799     2.70070
O1331       O  0.15909351  0.99721408  0.57137121    -0.79660
O1332       O  0.20563537  0.99575676  0.64787035    -0.98740
Zr1333     Zr  0.21350268  0.94080578  0.51062599     2.21500
Zr1334     Zr  0.26944787  0.55200037  0.51082125     2.11130
O1335       O  0.21774649  0.52443041  0.51101300    -2.47430
O1336       O  0.18962563  0.96848474  0.51097585    -0.79450
O1337       O  0.25593822  0.52460950  0.94839411    -0.71650
O1338       O  0.22745889  0.96831661  0.57304508    -2.32600
O1339       O  0.22757604  0.96821995  0.94821439    -2.28810
O1340       O  0.25587206  0.52475433  0.57325228    -0.73400
H1341       H  0.31445748  0.53708640  0.51041276     0.78590
H1342       H  0.22115412  0.95582439  0.59698858     0.79680
H1343       H  0.20949911  0.53698489  0.51111962     0.81900
H1344       H  0.22131511  0.95570285  0.92423699     0.79510
H1345       H  0.25883474  0.98474126  0.65538236     0.42550
H1346       H  0.22538132  0.51146162  0.65528630     0.41520
H1347       H  0.14937074  0.98662892  0.54575694     0.41200
H1348       H  0.16337715  0.51445857  0.96727750     0.39130
H1349       H  0.22607164  0.50569915  0.86670695     0.42260
H1350       H  0.26084588  0.98008180  0.86546786     0.37050
H1351       H  0.32173993  0.98264186  0.97537245     0.43160
H1352       H  0.33811815  0.51503711  0.55296454     0.39580
H1353       H  0.15567713  0.00047308  0.92314125     0.44500
H1354       H  0.29390984  0.98965258  0.86648802     0.43220
H1355       H  0.33182222  0.99967689  0.59602523     0.43350
H1356       H  0.19262166  0.00302538  0.65691985     0.43710
C1357       C  0.25178263  0.61905771  0.78303714    -0.09020
C1358       C  0.22646739  0.61312153  0.80454174     0.07170
C1359       C  0.20152745  0.60768395  0.78231713    -0.02790
C1360       C  0.20232312  0.60838298  0.73897699    -0.07240
C1361       C  0.22774326  0.61434635  0.71756256     0.06290
C1362       C  0.25262864  0.61982250  0.73993051    -0.02260
Br1363     Br  0.28867165  0.62966539  0.71301665    -0.01960
H1364       H  0.27114614  0.62358182  0.79995010     0.10200
H1365       H  0.18307155  0.60405534  0.72195581     0.08220
Br1366     Br  0.16588532  0.59834537  0.80988200    -0.02390
C1367       C  0.39747613  0.77767742  0.73811811    -0.09020
C1368       C  0.37115746  0.76041682  0.71722047     0.07170
C1369       C  0.34566314  0.74338027  0.74071789    -0.02790
C1370       C  0.34707848  0.74379871  0.78375195    -0.07240
C1371       C  0.37338783  0.76080015  0.80469919     0.06290
C1372       C  0.39886450  0.77800424  0.78131359    -0.02260
Br1373     Br  0.43603850  0.80333627  0.80584137    -0.01960
H1374       H  0.41717548  0.79112482  0.72069204     0.10200
H1375       H  0.32742349  0.72992801  0.80102175     0.08220
Br1376     Br  0.30840304  0.71710051  0.71694596    -0.02390
C1377       C  0.37219304  0.59175151  0.78328748    -0.09020
C1378       C  0.37380574  0.61562837  0.80435425     0.07170
C1379       C  0.37533474  0.63886687  0.78149611    -0.02790
C1380       C  0.37552596  0.63800970  0.73843181    -0.07240
C1381       C  0.37390441  0.61419100  0.71730173     0.06290
C1382       C  0.37228564  0.59088810  0.74003705    -0.02260
Br1383     Br  0.37140601  0.55809257  0.71369112    -0.01960
H1384       H  0.37107060  0.57382782  0.80057885     0.10200
H1385       H  0.37624336  0.65579294  0.72124477     0.08220
Br1386     Br  0.37512238  0.67141872  0.80709293    -0.02390
C1387       C  0.08443285  0.71181147  0.78367678    -0.09020
C1388       C  0.10961560  0.73214282  0.80462524     0.07170
C1389       C  0.13407006  0.75200717  0.78135140    -0.02790
C1390       C  0.13302761  0.75105018  0.73823302    -0.07240
C1391       C  0.10789932  0.73080512  0.71721395     0.06290
C1392       C  0.08338907  0.71095076  0.74037931    -0.02260
Br1393     Br  0.04845235  0.68142425  0.71479790    -0.01960
H1394       H  0.06553655  0.69637936  0.80111776     0.10200
H1395       H  0.15181667  0.76681910  0.72091676     0.08220
Br1396     Br  0.16882944  0.78248775  0.80624229    -0.02390
C1397       C  0.10575705  0.89839948  0.73908722    -0.09020
C1398       C  0.10962110  0.87759346  0.71765971     0.07170
C1399       C  0.11321221  0.85698174  0.74011811    -0.02790
C1400       C  0.11278524  0.85736700  0.78330652    -0.07240
C1401       C  0.10890516  0.87812106  0.80477654     0.06290
C1402       C  0.10523058  0.89868971  0.78240595    -0.02260
Br1403     Br  0.09821264  0.92663903  0.80973542    -0.01960
H1404       H  0.10280905  0.91420981  0.72205614     0.10200
H1405       H  0.11587184  0.84161594  0.80028194     0.08220
Br1406     Br  0.11991212  0.82860017  0.71326988    -0.02390
C1407       C  0.23314186  0.88162955  0.78354562    -0.09020
C1408       C  0.25369560  0.87720713  0.80433792     0.07170
C1409       C  0.27371374  0.87290319  0.78097992    -0.02790
C1410       C  0.27274840  0.87299158  0.73772579    -0.07240
C1411       C  0.25218369  0.87745749  0.71697588     0.06290
C1412       C  0.23212962  0.88168620  0.74041758    -0.02260
Br1413     Br  0.20153406  0.88567526  0.71571158    -0.01960
H1414       H  0.21728333  0.88442494  0.80104118     0.10200
H1415       H  0.28835805  0.86985694  0.72015318     0.08220
Br1416     Br  0.30371498  0.86826071  0.80622344    -0.02390
C1417       C  0.75150127  0.37684406  0.17113309     0.03260
C1418       C  0.75211853  0.39970157  0.14881582    -0.12890
C1419       C  0.74818098  0.39766480  0.10584170     0.00760
C1420       C  0.74473132  0.37303149  0.08486653    -0.11410
C1421       C  0.74645270  0.35113887  0.10639943     0.03260
C1422       C  0.74972266  0.35307484  0.14953100    -0.10830
H1423       H  0.75467196  0.41866884  0.16511189     0.08850
H1424       H  0.74195510  0.37149042  0.05160490     0.06380
H1425       H  0.74996953  0.33564044  0.16638565     0.06230
C1426       C  0.75306033  0.37662217  0.35018664     0.03260
C1427       C  0.75270629  0.39919563  0.37232737    -0.12890
C1428       C  0.74851817  0.39731698  0.41530557     0.00760
C1429       C  0.74505766  0.37278535  0.43637036    -0.11410
C1430       C  0.74676037  0.35073785  0.41488691     0.03260
C1431       C  0.75032577  0.35255170  0.37178534    -0.10830
H1432       H  0.75484107  0.41787656  0.35587727     0.08850
H1433       H  0.74213283  0.37137143  0.46963477     0.06530
H1434       H  0.75008956  0.33478565  0.35497440     0.06230
C1435       C  0.60936089  0.37800561  0.35042732     0.03260
C1436       C  0.63296664  0.40010060  0.37196472    -0.12890
C1437       C  0.63530245  0.39814643  0.41492605     0.00760
C1438       C  0.61369120  0.37400010  0.43628583    -0.11410
C1439       C  0.58929971  0.35250691  0.41527510     0.03260
C1440       C  0.58733773  0.35453197  0.37229547    -0.10830
H1441       H  0.65000865  0.41825075  0.35506752     0.08850
H1442       H  0.61531656  0.37248442  0.46947237     0.06380
H1443       H  0.56902850  0.33750947  0.35567759     0.06230
C1444       C  0.60995167  0.37757387  0.17199653     0.03260
C1445       C  0.58754170  0.35446427  0.15012729    -0.12890
C1446       C  0.58924408  0.35263647  0.10702734     0.00760
C1447       C  0.61356302  0.37418144  0.08581144    -0.11410
C1448       C  0.63534441  0.39819309  0.10715037     0.03260
C1449       C  0.63334913  0.39987055  0.15029708    -0.10830
H1450       H  0.56924781  0.33744259  0.16685567     0.08850
H1451       H  0.61500802  0.37281066  0.05251961     0.06380
H1452       H  0.65051949  0.41791084  0.16714540     0.06230
C1453       C  0.60805274  0.23178449  0.17135880     0.03260
C1454       C  0.58703435  0.23511519  0.14990754    -0.12890
C1455       C  0.58925565  0.23950442  0.10695413     0.00760
C1456       C  0.61309958  0.24137521  0.08553346    -0.11410
C1457       C  0.63382136  0.23729899  0.10639431     0.03260
C1458       C  0.63105986  0.23228785  0.14916037    -0.10830
H1459       H  0.56942416  0.23521904  0.16674469     0.08850
H1460       H  0.61492500  0.24487818  0.05240391     0.06380
H1461       H  0.64739148  0.22974112  0.16548063     0.06230
C1462       C  0.60966829  0.23300856  0.35048344     0.03260
C1463       C  0.58802009  0.23551083  0.37197510    -0.12890
C1464       C  0.58966228  0.23943573  0.41504342     0.00760
C1465       C  0.61322381  0.24106115  0.43659101    -0.11410
C1466       C  0.63403766  0.23689246  0.41577405     0.03260
C1467       C  0.63181203  0.23227840  0.37289912    -0.10830
H1468       H  0.57040682  0.23535887  0.35506139     0.08850
H1469       H  0.61470722  0.24435692  0.46978066     0.06380
H1470       H  0.64801318  0.22929262  0.35669292     0.06230
C1471       C  0.87307039  0.11567375  0.34998701     0.03260
C1472       C  0.89534896  0.13862323  0.37220360    -0.12890
C1473       C  0.89299675  0.14070719  0.41507511     0.00760
C1474       C  0.86849786  0.11917332  0.43593145    -0.11410
C1475       C  0.84706987  0.09503750  0.41434572     0.03260
C1476       C  0.84948125  0.09336514  0.37134751    -0.10830
H1477       H  0.91403288  0.15543092  0.35584032     0.08850
H1478       H  0.86668944  0.12060756  0.46914753     0.06380
H1479       H  0.83246133  0.07530491  0.35433492     0.06230
C1480       C  0.87315915  0.11426554  0.17168283     0.03260
C1481       C  0.84922935  0.09255742  0.15022031    -0.12890
C1482       C  0.84670726  0.09481865  0.10742478     0.00760
C1483       C  0.86815578  0.11915932  0.08619710    -0.11410
C1484       C  0.89265776  0.14045532  0.10719716     0.03260
C1485       C  0.89507117  0.13784235  0.14986122    -0.10830
H1486       H  0.83206079  0.07446305  0.16702904     0.08850
H1487       H  0.86634073  0.12096171  0.05311205     0.06380
H1488       H  0.91361552  0.15462993  0.16640003     0.06230
C1489       C  0.87123123  0.25929750  0.17131351     0.03260
C1490       C  0.84971258  0.26073468  0.14829995    -0.12890
C1491       C  0.84704949  0.25498216  0.10574042     0.00760
C1492       C  0.86773739  0.25036551  0.08538388    -0.11410
C1493       C  0.89128795  0.25217397  0.10729212     0.03260
C1494       C  0.89262140  0.25605545  0.15027945    -0.10830
H1495       H  0.83421347  0.26510373  0.16381908     0.08850
H1496       H  0.86621609  0.24667076  0.05228373     0.06380
H1497       H  0.90992202  0.25575051  0.16740302     0.06230
C1498       C  0.87311121  0.25931784  0.35058905     0.03260
C1499       C  0.89346567  0.25487926  0.37193898    -0.12890
C1500       C  0.89155938  0.25113424  0.41492762     0.00760
C1501       C  0.86788394  0.24967010  0.43641653    -0.11410
C1502       C  0.84733562  0.25403714  0.41554390     0.03260
C1503       C  0.85053899  0.25962862  0.37297465    -0.10830
H1504       H  0.91042537  0.25354911  0.35517348     0.08850
H1505       H  0.86605494  0.24624349  0.46956011     0.06380
H1506       H  0.83471096  0.26310192  0.35690262     0.06230
C1507       C  0.72730979  0.11367941  0.35010456     0.03260
C1508       C  0.72989810  0.09229798  0.37160854    -0.12890
C1509       C  0.73499908  0.09485976  0.41435090     0.00760
C1510       C  0.73790377  0.11928206  0.43543408    -0.11410
C1511       C  0.73426508  0.14026924  0.41440665     0.03260
C1512       C  0.72880398  0.13724893  0.37172314    -0.10830
H1513       H  0.72863249  0.07402704  0.35483377     0.08850
H1514       H  0.74174627  0.12131855  0.46847553     0.06380
H1515       H  0.72687373  0.15381135  0.35500953     0.06230
C1516       C  0.72834950  0.11485742  0.17198507     0.03260
C1517       C  0.73004009  0.09298529  0.15008860    -0.12890
C1518       C  0.73475081  0.09525347  0.10723821     0.00760
C1519       C  0.73770153  0.11965409  0.08629880    -0.11410
C1520       C  0.73452997  0.14094986  0.10765637     0.03260
C1521       C  0.72969321  0.13833775  0.15056588    -0.10830
H1522       H  0.72867410  0.07468792  0.16670092     0.08850
H1523       H  0.74124037  0.12145215  0.05315063     0.06380
H1524       H  0.72816046  0.15512801  0.16752663     0.06230
O1525       O  0.76377281  0.31879767  0.09423583    -0.75160
O1526       O  0.72605229  0.31445980  0.05541693    -0.54070
C1527       C  0.74528968  0.32652071  0.08388185     0.78570
O1528       O  0.81386292  0.27026769  0.42708932    -0.59760
O1529       O  0.81051430  0.23313885  0.46633430    -0.52790
C1530       C  0.82233696  0.25241711  0.43784758     0.70580
O1531       O  0.76378219  0.31818807  0.42676329    -0.74320
O1532       O  0.72620612  0.31430231  0.46610774    -0.54880
C1533       C  0.74542231  0.32612464  0.43738983     0.76590
O1534       O  0.81388084  0.27123738  0.09353315    -0.59460
O1535       O  0.81048508  0.23363907  0.05495701    -0.52580
C1536       C  0.82229566  0.25324127  0.08310797     0.73180
Zr1537     Zr  0.77744231  0.28338460  0.07194446     2.54710
O1538       O  0.82270084  0.32957556  0.06805355    -0.80030
O1539       O  0.77790210  0.28300942  0.14722293    -0.93440
Zr1540     Zr  0.77752582  0.28291918  0.44891688     2.64680
O1541       O  0.82261748  0.32933106  0.45193507    -0.98400
O1542       O  0.77783935  0.28256069  0.37364779    -0.80460
O1543       O  0.76386551  0.29762118  0.01041849    -0.83820
O1544       O  0.79228973  0.27001104  0.01046050    -2.18530
O1545       O  0.71760308  0.17367073  0.09583454    -0.67210
O1546       O  0.75486533  0.17725054  0.05610143    -0.51770
C1547       C  0.73585327  0.16561576  0.08513565     0.71560
O1548       O  0.66664969  0.21990363  0.42816226    -0.60110
O1549       O  0.67051610  0.25779253  0.46652821    -0.52090
C1550       C  0.65855391  0.23818295  0.43844231     0.73370
O1551       O  0.71735847  0.17297331  0.42655324    -0.71510
O1552       O  0.75480198  0.17692234  0.46562702    -0.50190
C1553       C  0.73566090  0.16503526  0.43697021     0.74750
O1554       O  0.66680810  0.22061810  0.09424421    -0.66840
O1555       O  0.67043235  0.25802418  0.05536886    -0.54040
C1556       C  0.65855955  0.23868473  0.08377060     0.73130
Zr1557     Zr  0.70341610  0.20838096  0.07257114     2.77540
O1558       O  0.65801233  0.16221469  0.07045204    -0.97590
O1559       O  0.70380047  0.20966822  0.14779665    -0.78410
Zr1560     Zr  0.70344616  0.20804411  0.44938302     2.70070
O1561       O  0.65839579  0.16158142  0.45129906    -0.79660
O1562       O  0.70419897  0.20993900  0.37415773    -0.98740
Zr1563     Zr  0.71218959  0.27290760  0.01080864     2.21500
Zr1564     Zr  0.76868380  0.21833065  0.01071246     2.11130
O1565       O  0.71693765  0.19375428  0.01094334    -2.47430
O1566       O  0.68849105  0.22129147  0.01101969    -0.79450
O1567       O  0.75484520  0.23203961  0.07313553    -0.71650
O1568       O  0.72614505  0.25927245  0.44834658    -2.32600
O1569       O  0.72607966  0.25964866  0.07324333    -2.28810
O1570       O  0.75487691  0.23156210  0.44821228    -0.73400
H1571       H  0.81315271  0.27855483  0.01041272     0.78590
H1572       H  0.71970681  0.26526926  0.42442436     0.79680
H1573       H  0.70885044  0.17296183  0.01097063     0.81900
H1574       H  0.71966799  0.26581012  0.09721255     0.79510
H1575       H  0.75727554  0.27470667  0.36575689     0.42550
H1576       H  0.72395698  0.21415829  0.36631983     0.41520
H1577       H  0.64867826  0.16224697  0.47712541     0.41200
H1578       H  0.66266624  0.14899784  0.05489756     0.39130
H1579       H  0.72465157  0.21963631  0.15516459     0.42260
H1580       H  0.75860830  0.27984822  0.15564293     0.37050
H1581       H  0.81972890  0.34006529  0.04512128     0.43160
H1582       H  0.83616920  0.32535463  0.46762931     0.39580
H1583       H  0.65496380  0.15502420  0.09925977     0.44500
H1584       H  0.79168938  0.30335998  0.15513724     0.43220
H1585       H  0.83016984  0.33273007  0.42324127     0.43350
H1586       H  0.69126125  0.18960105  0.36531423     0.43710
O1587       O  0.53958698  0.31971070  0.42784548    -0.75160
O1588       O  0.57352137  0.31620415  0.46648186    -0.54070
C1589       C  0.56598040  0.32791134  0.43807081     0.78570
O1590       O  0.94107603  0.26891925  0.09610106    -0.59760
O1591       O  0.90756528  0.23184369  0.05619798    -0.52790
C1592       C  0.91478834  0.25072881  0.08523970     0.70580
O1593       O  0.53946666  0.31981306  0.09498153    -0.74320
O1594       O  0.57341239  0.31634754  0.05565597    -0.54880
C1595       C  0.56586960  0.32805034  0.08435227     0.76590
O1596       O  0.94122646  0.26815168  0.42663882    -0.59460
O1597       O  0.90752221  0.23128112  0.46669353    -0.52580
C1598       C  0.91488499  0.24992725  0.43742203     0.73180
Zr1599     Zr  0.99052160  0.28356510  0.44995663     2.54710
O1600       O  0.98903193  0.32841220  0.45554230    -0.80030
O1601       O  0.99033090  0.28508134  0.37470801    -0.93440
Zr1602     Zr  0.99042473  0.28376935  0.07288346     2.64680
O1603       O  0.98988189  0.32914096  0.06840551    -0.98400
O1604       O  0.99063134  0.28528171  0.14811220    -0.80460
O1605       O  0.51868850  0.29849366  0.01131782    -0.83820
O1606       O  0.96235002  0.26999724  0.01148713    -2.18530
O1607       O  0.94251441  0.17396671  0.42691446    -0.67210
O1608       O  0.90847217  0.17670958  0.46687191    -0.51770
C1609       C  0.91612251  0.16537950  0.43780350     0.71560
O1610       O  0.53983492  0.22277192  0.09473722    -0.60110
O1611       O  0.57370720  0.26051581  0.05604892    -0.52090
C1612       C  0.56617681  0.24115507  0.08444760     0.73370
O1613       O  0.94219975  0.17384820  0.09538841    -0.71510
O1614       O  0.90825967  0.17678812  0.05609344    -0.50190
C1615       C  0.91583179  0.16531664  0.08476275     0.74750
O1616       O  0.54012808  0.22278135  0.42713671    -0.66840
O1617       O  0.57382550  0.26035665  0.46615916    -0.54040
C1618       C  0.56642710  0.24107292  0.43755382     0.73130
Zr1619     Zr  0.99127364  0.20955589  0.44968417     2.77540
O1620       O  0.99179388  0.16411038  0.45160712    -0.97590
O1621       O  0.99163301  0.21056488  0.37445931    -0.78410
Zr1622     Zr  0.99104898  0.20971737  0.07291791     2.70070
O1623       O  0.99092848  0.16395430  0.07130664    -0.79660
O1624       O  0.99204419  0.21175259  0.14815098    -0.98740
Zr1625     Zr  0.54652266  0.27468377  0.01114565     2.21500
Zr1626     Zr  0.93533177  0.21824900  0.01153130     2.11130
O1627       O  0.96326231  0.19460360  0.01136274    -2.47430
O1628       O  0.51924651  0.22306123  0.01123881    -0.79450
O1629       O  0.96267186  0.23218394  0.44900558    -0.71650
O1630       O  0.51890889  0.26099473  0.07359397    -2.32600
O1631       O  0.51907624  0.26084597  0.44881129    -2.28810
O1632       O  0.96243922  0.23235149  0.07402455    -0.73400
H1633       H  0.94954456  0.27795795  0.01144739     0.78590
H1634       H  0.53137448  0.26732494  0.09753760     0.79680
H1635       H  0.95087608  0.17375427  0.01140273     0.81900
H1636       H  0.53157726  0.26713840  0.42477329     0.79510
H1637       H  0.50099843  0.27501324  0.15641977     0.42550
H1638       H  0.97580969  0.21491214  0.15592897     0.41520
H1639       H  0.50081649  0.16451386  0.04502739     0.41200
H1640       H  0.97398335  0.15053865  0.46701841     0.39130
H1641       H  0.98166055  0.22144394  0.36732782     0.42260
H1642       H  0.50652247  0.28213290  0.36590372     0.37050
H1643       H  0.50401649  0.34007928  0.47635110     0.43160
H1644       H  0.97146148  0.32399728  0.05423688     0.39580
H1645       H  0.98785336  0.15693308  0.42274758     0.44500
H1646       H  0.99697303  0.30559899  0.36791388     0.43220
H1647       H  0.98683656  0.33335138  0.09725044     0.43350
H1648       H  0.98559614  0.19162461  0.15697393     0.43710
O1649       O  0.76589496  0.44712938  0.42754732    -0.75160
O1650       O  0.72791905  0.41347978  0.46621753    -0.54070
C1651       C  0.74742375  0.42081589  0.43793106     0.78570
O1652       O  0.81360748  0.04525457  0.09550171    -0.59760
O1653       O  0.81064710  0.07907819  0.05587954    -0.52790
C1654       C  0.82198277  0.07158695  0.08487844     0.70580
O1655       O  0.76563639  0.44738747  0.09362187    -0.74320
O1656       O  0.72792117  0.41367664  0.05483159    -0.54880
C1657       C  0.74725125  0.42107675  0.08316114     0.76590
O1658       O  0.81398257  0.04532025  0.42580787    -0.59460
O1659       O  0.81080417  0.07907307  0.46584285    -0.52580
C1660       C  0.82228986  0.07164544  0.43670391     0.73180
Zr1661     Zr  0.77897066  0.49631032  0.44904595     2.54710
O1662       O  0.82502507  0.49712568  0.45379669    -0.80030
O1663       O  0.78008495  0.99630684  0.37375989    -0.93440
Zr1664     Zr  0.77882352  0.49637041  0.07189803     2.64680
O1665       O  0.82467092  0.49666064  0.06721487    -0.98400
O1666       O  0.77954710  0.99588054  0.14713027    -0.80460
O1667       O  0.76522241  0.46816408  0.01043852    -0.83820
O1668       O  0.79362661  0.02448420  0.01050807    -2.18530
O1669       O  0.71850960  0.04533657  0.42630997    -0.67210
O1670       O  0.75547685  0.07922221  0.46588726    -0.51770
C1671       C  0.73654580  0.07169884  0.43693906     0.71560
O1672       O  0.66822743  0.44781523  0.09485471    -0.60110
O1673       O  0.67192702  0.41393795  0.05583154    -0.52090
C1674       C  0.66009605  0.42145901  0.08444104     0.73370
O1675       O  0.71815491  0.04563648  0.09521121    -0.71510
O1676       O  0.75533461  0.07941969  0.05563069    -0.50190
C1677       C  0.73624665  0.07198007  0.08454981     0.74750
O1678       O  0.66843335  0.44771563  0.42700606    -0.66840
O1679       O  0.67187086  0.41385935  0.46589885    -0.54040
C1680       C  0.66014429  0.42137132  0.43742960     0.73130
Zr1681     Zr  0.70456865  0.49645203  0.44934400     2.77540
O1682       O  0.65887710  0.49655486  0.45195884    -0.97590
O1683       O  0.70520091  0.49606072  0.37410948    -0.78410
Zr1684     Zr  0.70450459  0.49658482  0.07265799     2.70070
O1685       O  0.65909350  0.49721407  0.07137120    -0.79660
O1686       O  0.70563536  0.49575676  0.14787035    -0.98740
Zr1687     Zr  0.71350268  0.44080578  0.01062599     2.21500
Zr1688     Zr  0.76944787  0.05200037  0.01082125     2.11130
O1689       O  0.71774649  0.02443042  0.01101300    -2.47430
O1690       O  0.68962562  0.46848474  0.01097584    -0.79450
O1691       O  0.75593822  0.02460950  0.44839412    -0.71650
O1692       O  0.72745889  0.46831660  0.07304508    -2.32600
O1693       O  0.72757604  0.46821995  0.44821439    -2.28810
O1694       O  0.75587206  0.02475433  0.07325228    -0.73400
H1695       H  0.81445748  0.03708640  0.01041276     0.78590
H1696       H  0.72115412  0.45582438  0.09698858     0.79680
H1697       H  0.70949911  0.03698489  0.01111963     0.81900
H1698       H  0.72131511  0.45570285  0.42423699     0.79510
H1699       H  0.75883474  0.48474126  0.15538236     0.42550
H1700       H  0.72538132  0.01146162  0.15528630     0.41520
H1701       H  0.64937074  0.48662891  0.04575692     0.41200
H1702       H  0.66337715  0.01445858  0.46727751     0.39130
H1703       H  0.72607162  0.00569915  0.36670695     0.42260
H1704       H  0.76084589  0.48008180  0.36546786     0.37050
H1705       H  0.82173993  0.48264186  0.47537245     0.43160
H1706       H  0.83811815  0.01503711  0.05296454     0.39580
H1707       H  0.65567713  0.50047306  0.42314126     0.44500
H1708       H  0.79390985  0.48965259  0.36648802     0.43220
H1709       H  0.83182222  0.49967688  0.09602522     0.43350
H1710       H  0.69262165  0.50302538  0.15691984     0.43710
C1711       C  0.75178265  0.11905777  0.28303714    -0.09020
C1712       C  0.72646740  0.11312154  0.30454174     0.07170
C1713       C  0.70152744  0.10768391  0.28231713    -0.02790
C1714       C  0.70232311  0.10838293  0.23897699    -0.07240
C1715       C  0.72774326  0.11434636  0.21756256     0.06290
C1716       C  0.75262866  0.11982256  0.23993050    -0.02260
Br1717     Br  0.78867168  0.12966550  0.21301664    -0.01960
H1718       H  0.77114617  0.12358190  0.29995009     0.10200
H1719       H  0.68307153  0.10405525  0.22195582     0.08220
Br1720     Br  0.66588530  0.09834526  0.30988201    -0.02390
C1721       C  0.89747613  0.27767742  0.23811811    -0.09020
C1722       C  0.87115746  0.26041682  0.21722047     0.07170
C1723       C  0.84566314  0.24338027  0.24071788    -0.02790
C1724       C  0.84707848  0.24379871  0.28375195    -0.07240
C1725       C  0.87338783  0.26080015  0.30469919     0.06290
C1726       C  0.89886450  0.27800423  0.28131359    -0.02260
Br1727     Br  0.93603850  0.30333626  0.30584137    -0.01960
H1728       H  0.91717548  0.29112481  0.22069205     0.10200
H1729       H  0.82742349  0.22992801  0.30102174     0.08220
Br1730     Br  0.80840304  0.21710052  0.21694596    -0.02390
C1731       C  0.87219303  0.09175151  0.28328748    -0.09020
C1732       C  0.87380573  0.11562837  0.30435425     0.07170
C1733       C  0.87533474  0.13886687  0.28149611    -0.02790
C1734       C  0.87552596  0.13800970  0.23843182    -0.07240
C1735       C  0.87390441  0.11419100  0.21730173     0.06290
C1736       C  0.87228563  0.09088810  0.24003705    -0.02260
Br1737     Br  0.87140600  0.05809257  0.21369112    -0.01960
H1738       H  0.87107060  0.07382782  0.30057885     0.10200
H1739       H  0.87624336  0.15579294  0.22124477     0.08220
Br1740     Br  0.87512238  0.17141872  0.30709293    -0.02390
C1741       C  0.58443284  0.21181146  0.28367678    -0.09020
C1742       C  0.60961559  0.23214280  0.30462524     0.07170
C1743       C  0.63407005  0.25200715  0.28135140    -0.02790
C1744       C  0.63302760  0.25105017  0.23823302    -0.07240
C1745       C  0.60789931  0.23080511  0.21721394     0.06290
C1746       C  0.58338906  0.21095075  0.24037931    -0.02260
Br1747     Br  0.54845234  0.18142424  0.21479789    -0.01960
H1748       H  0.56553654  0.19637935  0.30111776     0.10200
H1749       H  0.65181667  0.26681908  0.22091676     0.08220
Br1750     Br  0.66882944  0.28248773  0.30624229    -0.02390
C1751       C  0.60575705  0.39839947  0.23908722    -0.09020
C1752       C  0.60962111  0.37759345  0.21765970     0.07170
C1753       C  0.61321222  0.35698173  0.24011810    -0.02790
C1754       C  0.61278525  0.35736699  0.28330651    -0.07240
C1755       C  0.60890517  0.37812105  0.30477654     0.06290
C1756       C  0.60523058  0.39868969  0.28240595    -0.02260
Br1757     Br  0.59821263  0.42663901  0.30973543    -0.01960
H1758       H  0.60280904  0.41420980  0.22205614     0.10200
H1759       H  0.61587186  0.34161593  0.30028194     0.08220
Br1760     Br  0.61991213  0.32860017  0.21326987    -0.02390
C1761       C  0.73314186  0.38162956  0.28354562    -0.09020
C1762       C  0.75369560  0.37720713  0.30433792     0.07170
C1763       C  0.77371374  0.37290318  0.28097991    -0.02790
C1764       C  0.77274840  0.37299157  0.23772578    -0.07240
C1765       C  0.75218369  0.37745749  0.21697588     0.06290
C1766       C  0.73212962  0.38168621  0.24041758    -0.02260
Br1767     Br  0.70153407  0.38567527  0.21571159    -0.01960
H1768       H  0.71728334  0.38442495  0.30104119     0.10200
H1769       H  0.78835804  0.36985693  0.22015317     0.08220
Br1770     Br  0.80371497  0.36826069  0.30622344    -0.02390
C1771       C  0.75150127  0.37684406  0.67113309     0.03260
C1772       C  0.75211854  0.39970157  0.64881582    -0.12890
C1773       C  0.74818099  0.39766480  0.60584170     0.00760
C1774       C  0.74473132  0.37303149  0.58486652    -0.11410
C1775       C  0.74645271  0.35113888  0.60639943     0.03260
C1776       C  0.74972266  0.35307484  0.64953100    -0.10830
H1777       H  0.75467197  0.41866884  0.66511189     0.08850
H1778       H  0.74195511  0.37149042  0.55160490     0.06380
H1779       H  0.74996953  0.33564043  0.66638565     0.06230
C1780       C  0.75306032  0.37662217  0.85018664     0.03260
C1781       C  0.75270629  0.39919563  0.87232737    -0.12890
C1782       C  0.74851817  0.39731698  0.91530557     0.00760
C1783       C  0.74505766  0.37278535  0.93637036    -0.11410
C1784       C  0.74676036  0.35073785  0.91488691     0.03260
C1785       C  0.75032577  0.35255170  0.87178534    -0.10830
H1786       H  0.75484107  0.41787656  0.85587727     0.08850
H1787       H  0.74213283  0.37137143  0.96963477     0.06530
H1788       H  0.75008956  0.33478565  0.85497440     0.06230
C1789       C  0.60936088  0.37800562  0.85042732     0.03260
C1790       C  0.63296663  0.40010060  0.87196472    -0.12890
C1791       C  0.63530245  0.39814643  0.91492605     0.00760
C1792       C  0.61369120  0.37400010  0.93628582    -0.11410
C1793       C  0.58929970  0.35250691  0.91527510     0.03260
C1794       C  0.58733772  0.35453198  0.87229547    -0.10830
H1795       H  0.65000865  0.41825075  0.85506752     0.08850
H1796       H  0.61531655  0.37248442  0.96947236     0.06380
H1797       H  0.56902849  0.33750948  0.85567759     0.06230
C1798       C  0.60995167  0.37757387  0.67199653     0.03260
C1799       C  0.58754170  0.35446427  0.65012729    -0.12890
C1800       C  0.58924408  0.35263647  0.60702734     0.00760
C1801       C  0.61356303  0.37418144  0.58581144    -0.11410
C1802       C  0.63534441  0.39819309  0.60715036     0.03260
C1803       C  0.63334913  0.39987055  0.65029707    -0.10830
H1804       H  0.56924781  0.33744259  0.66685567     0.08850
H1805       H  0.61500803  0.37281066  0.55251961     0.06380
H1806       H  0.65051949  0.41791084  0.66714540     0.06230
C1807       C  0.60805274  0.23178449  0.67135880     0.03260
C1808       C  0.58703435  0.23511519  0.64990754    -0.12890
C1809       C  0.58925565  0.23950442  0.60695413     0.00760
C1810       C  0.61309958  0.24137521  0.58553346    -0.11410
C1811       C  0.63382136  0.23729899  0.60639431     0.03260
C1812       C  0.63105986  0.23228785  0.64916037    -0.10830
H1813       H  0.56942415  0.23521904  0.66674469     0.08850
H1814       H  0.61492500  0.24487818  0.55240391     0.06380
H1815       H  0.64739149  0.22974113  0.66548063     0.06230
C1816       C  0.60966829  0.23300856  0.85048344     0.03260
C1817       C  0.58802009  0.23551083  0.87197510    -0.12890
C1818       C  0.58966228  0.23943573  0.91504342     0.00760
C1819       C  0.61322381  0.24106115  0.93659101    -0.11410
C1820       C  0.63403766  0.23689246  0.91577405     0.03260
C1821       C  0.63181203  0.23227841  0.87289911    -0.10830
H1822       H  0.57040683  0.23535888  0.85506139     0.08850
H1823       H  0.61470723  0.24435692  0.96978066     0.06380
H1824       H  0.64801318  0.22929262  0.85669292     0.06230
C1825       C  0.87307040  0.11567375  0.84998701     0.03260
C1826       C  0.89534896  0.13862323  0.87220360    -0.12890
C1827       C  0.89299675  0.14070719  0.91507511     0.00760
C1828       C  0.86849786  0.11917332  0.93593145    -0.11410
C1829       C  0.84706987  0.09503750  0.91434571     0.03260
C1830       C  0.84948126  0.09336514  0.87134750    -0.10830
H1831       H  0.91403289  0.15543092  0.85584032     0.08850
H1832       H  0.86668944  0.12060756  0.96914753     0.06380
H1833       H  0.83246134  0.07530491  0.85433492     0.06230
C1834       C  0.87315916  0.11426553  0.67168282     0.03260
C1835       C  0.84922936  0.09255742  0.65022031    -0.12890
C1836       C  0.84670726  0.09481865  0.60742478     0.00760
C1837       C  0.86815578  0.11915931  0.58619709    -0.11410
C1838       C  0.89265777  0.14045531  0.60719716     0.03260
C1839       C  0.89507118  0.13784234  0.64986122    -0.10830
H1840       H  0.83206080  0.07446305  0.66702904     0.08850
H1841       H  0.86634074  0.12096171  0.55311205     0.06380
H1842       H  0.91361553  0.15462992  0.66640003     0.06230
C1843       C  0.87123122  0.25929750  0.67131351     0.03260
C1844       C  0.84971258  0.26073468  0.64829995    -0.12890
C1845       C  0.84704949  0.25498216  0.60574042     0.00760
C1846       C  0.86773739  0.25036551  0.58538388    -0.11410
C1847       C  0.89128795  0.25217397  0.60729212     0.03260
C1848       C  0.89262140  0.25605545  0.65027945    -0.10830
H1849       H  0.83421347  0.26510373  0.66381908     0.08850
H1850       H  0.86621609  0.24667076  0.55228373     0.06380
H1851       H  0.90992202  0.25575051  0.66740302     0.06230
C1852       C  0.87311121  0.25931784  0.85058905     0.03260
C1853       C  0.89346567  0.25487927  0.87193897    -0.12890
C1854       C  0.89155938  0.25113424  0.91492762     0.00760
C1855       C  0.86788394  0.24967010  0.93641653    -0.11410
C1856       C  0.84733562  0.25403715  0.91554390     0.03260
C1857       C  0.85053899  0.25962862  0.87297465    -0.10830
H1858       H  0.91042537  0.25354911  0.85517348     0.08850
H1859       H  0.86605494  0.24624349  0.96956011     0.06380
H1860       H  0.83471096  0.26310192  0.85690261     0.06230
C1861       C  0.72730978  0.11367940  0.85010456     0.03260
C1862       C  0.72989809  0.09229798  0.87160854    -0.12890
C1863       C  0.73499908  0.09485976  0.91435090     0.00760
C1864       C  0.73790377  0.11928205  0.93543408    -0.11410
C1865       C  0.73426508  0.14026924  0.91440665     0.03260
C1866       C  0.72880397  0.13724892  0.87172315    -0.10830
H1867       H  0.72863247  0.07402704  0.85483377     0.08850
H1868       H  0.74174627  0.12131855  0.96847553     0.06380
H1869       H  0.72687372  0.15381135  0.85500953     0.06230
C1870       C  0.72834949  0.11485741  0.67198507     0.03260
C1871       C  0.73004008  0.09298528  0.65008860    -0.12890
C1872       C  0.73475081  0.09525347  0.60723821     0.00760
C1873       C  0.73770153  0.11965409  0.58629880    -0.11410
C1874       C  0.73452997  0.14094986  0.60765637     0.03260
C1875       C  0.72969320  0.13833775  0.65056588    -0.10830
H1876       H  0.72867409  0.07468791  0.66670092     0.08850
H1877       H  0.74124037  0.12145215  0.55315063     0.06380
H1878       H  0.72816045  0.15512800  0.66752663     0.06230
O1879       O  0.76377281  0.31879767  0.59423583    -0.75160
O1880       O  0.72605229  0.31445980  0.55541693    -0.54070
C1881       C  0.74528968  0.32652072  0.58388185     0.78570
O1882       O  0.81386292  0.27026769  0.92708932    -0.59760
O1883       O  0.81051430  0.23313885  0.96633430    -0.52790
C1884       C  0.82233696  0.25241711  0.93784758     0.70580
O1885       O  0.76378219  0.31818807  0.92676329    -0.74320
O1886       O  0.72620612  0.31430231  0.96610774    -0.54880
C1887       C  0.74542230  0.32612464  0.93738983     0.76590
O1888       O  0.81388084  0.27123738  0.59353315    -0.59460
O1889       O  0.81048508  0.23363907  0.55495701    -0.52580
C1890       C  0.82229566  0.25324127  0.58310797     0.73180
Zr1891     Zr  0.77744231  0.28338460  0.57194446     2.54710
O1892       O  0.82270084  0.32957556  0.56805354    -0.80030
O1893       O  0.77790211  0.28300942  0.64722292    -0.93440
Zr1894     Zr  0.77752582  0.28291919  0.94891689     2.64680
O1895       O  0.82261749  0.32933107  0.95193509    -0.98400
O1896       O  0.77783936  0.28256071  0.87364779    -0.80460
O1897       O  0.76386551  0.29762118  0.51041848    -0.83820
O1898       O  0.79228973  0.27001103  0.51046050    -2.18530
O1899       O  0.71760308  0.17367073  0.59583455    -0.67210
O1900       O  0.75486533  0.17725054  0.55610143    -0.51770
C1901       C  0.73585327  0.16561576  0.58513566     0.71560
O1902       O  0.66664969  0.21990363  0.92816226    -0.60110
O1903       O  0.67051611  0.25779253  0.96652821    -0.52090
C1904       C  0.65855391  0.23818296  0.93844231     0.73370
O1905       O  0.71735847  0.17297331  0.92655324    -0.71510
O1906       O  0.75480198  0.17692234  0.96562702    -0.50190
C1907       C  0.73566090  0.16503526  0.93697021     0.74750
O1908       O  0.66680810  0.22061810  0.59424421    -0.66840
O1909       O  0.67043235  0.25802418  0.55536886    -0.54040
C1910       C  0.65855955  0.23868473  0.58377060     0.73130
Zr1911     Zr  0.70341611  0.20838096  0.57257114     2.77540
O1912       O  0.65801233  0.16221470  0.57045204    -0.97590
O1913       O  0.70380047  0.20966823  0.64779665    -0.78410
Zr1914     Zr  0.70344616  0.20804411  0.94938301     2.70070
O1915       O  0.65839579  0.16158142  0.95129904    -0.79660
O1916       O  0.70419898  0.20993901  0.87415773    -0.98740
Zr1917     Zr  0.71218959  0.27290760  0.51080864     2.21500
Zr1918     Zr  0.76868380  0.21833065  0.51071246     2.11130
O1919       O  0.71693765  0.19375428  0.51094334    -2.47430
O1920       O  0.68849105  0.22129147  0.51101970    -0.79450
O1921       O  0.75484520  0.23203961  0.57313553    -0.71650
O1922       O  0.72614505  0.25927245  0.94834658    -2.32600
O1923       O  0.72607966  0.25964866  0.57324333    -2.28810
O1924       O  0.75487691  0.23156211  0.94821228    -0.73400
H1925       H  0.81315271  0.27855483  0.51041271     0.78590
H1926       H  0.71970681  0.26526927  0.92442436     0.79680
H1927       H  0.70885044  0.17296183  0.51097063     0.81900
H1928       H  0.71966799  0.26581012  0.59721255     0.79510
H1929       H  0.75727556  0.27470667  0.86575688     0.42550
H1930       H  0.72395699  0.21415829  0.86631983     0.41520
H1931       H  0.64867827  0.16224697  0.97712540     0.41200
H1932       H  0.66266624  0.14899785  0.55489757     0.39130
H1933       H  0.72465158  0.21963632  0.65516459     0.42260
H1934       H  0.75860830  0.27984823  0.65564293     0.37050
H1935       H  0.81972890  0.34006529  0.54512126     0.43160
H1936       H  0.83616920  0.32535463  0.96762932     0.39580
H1937       H  0.65496380  0.15502421  0.59925978     0.44500
H1938       H  0.79168939  0.30335998  0.65513723     0.43220
H1939       H  0.83016984  0.33273009  0.92324129     0.43350
H1940       H  0.69126126  0.18960106  0.86531422     0.43710
O1941       O  0.53958697  0.31971070  0.92784548    -0.75160
O1942       O  0.57352137  0.31620415  0.96648186    -0.54070
C1943       C  0.56598039  0.32791134  0.93807080     0.78570
O1944       O  0.94107603  0.26891924  0.59610106    -0.59760
O1945       O  0.90756528  0.23184369  0.55619799    -0.52790
C1946       C  0.91478834  0.25072881  0.58523970     0.70580
O1947       O  0.53946666  0.31981306  0.59498153    -0.74320
O1948       O  0.57341239  0.31634754  0.55565597    -0.54880
C1949       C  0.56586960  0.32805034  0.58435227     0.76590
O1950       O  0.94122646  0.26815168  0.92663882    -0.59460
O1951       O  0.90752221  0.23128112  0.96669353    -0.52580
C1952       C  0.91488499  0.24992725  0.93742203     0.73180
Zr1953     Zr  0.99052160  0.28356510  0.94995663     2.54710
O1954       O  0.98903193  0.32841220  0.95554227    -0.80030
O1955       O  0.99033090  0.28508133  0.87470800    -0.93440
Zr1956     Zr  0.99042473  0.28376935  0.57288347     2.64680
O1957       O  0.98988189  0.32914096  0.56840552    -0.98400
O1958       O  0.99063134  0.28528170  0.64811221    -0.80460
O1959       O  0.51868850  0.29849366  0.51131782    -0.83820
O1960       O  0.96235002  0.26999724  0.51148714    -2.18530
O1961       O  0.94251441  0.17396671  0.92691446    -0.67210
O1962       O  0.90847217  0.17670958  0.96687191    -0.51770
C1963       C  0.91612251  0.16537950  0.93780350     0.71560
O1964       O  0.53983492  0.22277191  0.59473722    -0.60110
O1965       O  0.57370720  0.26051581  0.55604892    -0.52090
C1966       C  0.56617681  0.24115507  0.58444760     0.73370
O1967       O  0.94219976  0.17384819  0.59538840    -0.71510
O1968       O  0.90825968  0.17678811  0.55609345    -0.50190
C1969       C  0.91583179  0.16531664  0.58476274     0.74750
O1970       O  0.54012808  0.22278136  0.92713671    -0.66840
O1971       O  0.57382550  0.26035666  0.96615916    -0.54040
C1972       C  0.56642710  0.24107292  0.93755382     0.73130
Zr1973     Zr  0.99127364  0.20955588  0.94968418     2.77540
O1974       O  0.99179389  0.16411038  0.95160715    -0.97590
O1975       O  0.99163300  0.21056486  0.87445931    -0.78410
Zr1976     Zr  0.99104898  0.20971737  0.57291791     2.70070
O1977       O  0.99092849  0.16395430  0.57130663    -0.79660
O1978       O  0.99204420  0.21175258  0.64815098    -0.98740
Zr1979     Zr  0.54652266  0.27468377  0.51114565     2.21500
Zr1980     Zr  0.93533177  0.21824900  0.51153130     2.11130
O1981       O  0.96326231  0.19460360  0.51136273    -2.47430
O1982       O  0.51924650  0.22306123  0.51123881    -0.79450
O1983       O  0.96267186  0.23218394  0.94900558    -0.71650
O1984       O  0.51890889  0.26099473  0.57359396    -2.32600
O1985       O  0.51907624  0.26084597  0.94881129    -2.28810
O1986       O  0.96243922  0.23235148  0.57402455    -0.73400
H1987       H  0.94954456  0.27795795  0.51144740     0.78590
H1988       H  0.53137449  0.26732493  0.59753760     0.79680
H1989       H  0.95087608  0.17375427  0.51140273     0.81900
H1990       H  0.53157726  0.26713840  0.92477329     0.79510
H1991       H  0.50099844  0.27501323  0.65641977     0.42550
H1992       H  0.97580969  0.21491214  0.65592897     0.41520
H1993       H  0.50081646  0.16451385  0.54502736     0.41200
H1994       H  0.97398335  0.15053865  0.96701844     0.39130
H1995       H  0.98166055  0.22144393  0.86732781     0.42260
H1996       H  0.50652247  0.28213289  0.86590372     0.37050
H1997       H  0.50401647  0.34007928  0.97635110     0.43160
H1998       H  0.97146149  0.32399727  0.55423689     0.39580
H1999       H  0.98785337  0.15693308  0.92274761     0.44500
H2000       H  0.99697303  0.30559897  0.86791386     0.43220
H2001       H  0.98683656  0.33335138  0.59725046     0.43350
H2002       H  0.98559614  0.19162461  0.65697393     0.43710
O2003       O  0.76589496  0.44712938  0.92754732    -0.75160
O2004       O  0.72791905  0.41347977  0.96621753    -0.54070
C2005       C  0.74742374  0.42081589  0.93793106     0.78570
O2006       O  0.81360748  0.04525457  0.59550171    -0.59760
O2007       O  0.81064710  0.07907818  0.55587954    -0.52790
C2008       C  0.82198277  0.07158695  0.58487845     0.70580
O2009       O  0.76563639  0.44738747  0.59362187    -0.74320
O2010       O  0.72792117  0.41367664  0.55483159    -0.54880
C2011       C  0.74725126  0.42107675  0.58316114     0.76590
O2012       O  0.81398257  0.04532025  0.92580787    -0.59460
O2013       O  0.81080417  0.07907307  0.96584284    -0.52580
C2014       C  0.82228986  0.07164544  0.93670391     0.73180
Zr2015     Zr  0.77897066  0.49631032  0.94904595     2.54710
O2016       O  0.82502507  0.49712568  0.95379670    -0.80030
O2017       O  0.78008496  0.99630684  0.87375989    -0.93440
Zr2018     Zr  0.77882353  0.49637041  0.57189803     2.64680
O2019       O  0.82467093  0.49666065  0.56721486    -0.98400
O2020       O  0.77954709  0.99588054  0.64713027    -0.80460
O2021       O  0.76522241  0.46816408  0.51043852    -0.83820
O2022       O  0.79362661  0.02448420  0.51050808    -2.18530
O2023       O  0.71850960  0.04533657  0.92630997    -0.67210
O2024       O  0.75547685  0.07922221  0.96588726    -0.51770
C2025       C  0.73654580  0.07169884  0.93693906     0.71560
O2026       O  0.66822743  0.44781523  0.59485471    -0.60110
O2027       O  0.67192702  0.41393795  0.55583154    -0.52090
C2028       C  0.66009606  0.42145901  0.58444104     0.73370
O2029       O  0.71815491  0.04563648  0.59521121    -0.71510
O2030       O  0.75533461  0.07941969  0.55563069    -0.50190
C2031       C  0.73624665  0.07198007  0.58454981     0.74750
O2032       O  0.66843335  0.44771564  0.92700606    -0.66840
O2033       O  0.67187085  0.41385935  0.96589885    -0.54040
C2034       C  0.66014428  0.42137132  0.93742960     0.73130
Zr2035     Zr  0.70456865  0.49645203  0.94934400     2.77540
O2036       O  0.65887710  0.49655487  0.95195884    -0.97590
O2037       O  0.70520091  0.49606072  0.87410948    -0.78410
Zr2038     Zr  0.70450459  0.49658482  0.57265799     2.70070
O2039       O  0.65909351  0.49721408  0.57137121    -0.79660
O2040       O  0.70563537  0.49575675  0.64787035    -0.98740
Zr2041     Zr  0.71350268  0.44080578  0.51062599     2.21500
Zr2042     Zr  0.76944787  0.05200037  0.51082125     2.11130
O2043       O  0.71774649  0.02443042  0.51101301    -2.47430
O2044       O  0.68962563  0.46848474  0.51097584    -0.79450
O2045       O  0.75593822  0.02460950  0.94839411    -0.71650
O2046       O  0.72745890  0.46831660  0.57304508    -2.32600
O2047       O  0.72757604  0.46821995  0.94821439    -2.28810
O2048       O  0.75587206  0.02475433  0.57325229    -0.73400
H2049       H  0.81445748  0.03708640  0.51041276     0.78590
H2050       H  0.72115412  0.45582438  0.59698858     0.79680
H2051       H  0.70949911  0.03698489  0.51111963     0.81900
H2052       H  0.72131511  0.45570284  0.92423698     0.79510
H2053       H  0.75883475  0.48474126  0.65538236     0.42550
H2054       H  0.72538132  0.01146162  0.65528631     0.41520
H2055       H  0.64937074  0.48662892  0.54575693     0.41200
H2056       H  0.66337715  0.01445858  0.96727751     0.39130
H2057       H  0.72607162  0.00569914  0.86670694     0.42260
H2058       H  0.76084589  0.48008180  0.86546786     0.37050
H2059       H  0.82173992  0.48264185  0.97537245     0.43160
H2060       H  0.83811815  0.01503711  0.55296453     0.39580
H2061       H  0.65567713  0.50047307  0.92314125     0.44500
H2062       H  0.79390984  0.48965258  0.86648802     0.43220
H2063       H  0.83182222  0.49967689  0.59602522     0.43350
H2064       H  0.69262166  0.50302538  0.65691984     0.43710
C2065       C  0.75178264  0.11905775  0.78303714    -0.09020
C2066       C  0.72646739  0.11312153  0.80454174     0.07170
C2067       C  0.70152743  0.10768391  0.78231713    -0.02790
C2068       C  0.70232310  0.10838294  0.73897699    -0.07240
C2069       C  0.72774325  0.11434635  0.71756256     0.06290
C2070       C  0.75262864  0.11982254  0.73993051    -0.02260
Br2071     Br  0.78867167  0.12966548  0.71301664    -0.01960
H2072       H  0.77114616  0.12358188  0.79995010     0.10200
H2073       H  0.68307153  0.10405527  0.72195581     0.08220
Br2074     Br  0.66588529  0.09834528  0.80988201    -0.02390
C2075       C  0.89747613  0.27767742  0.73811811    -0.09020
C2076       C  0.87115746  0.26041681  0.71722047     0.07170
C2077       C  0.84566314  0.24338027  0.74071788    -0.02790
C2078       C  0.84707848  0.24379870  0.78375195    -0.07240
C2079       C  0.87338783  0.26080015  0.80469919     0.06290
C2080       C  0.89886450  0.27800423  0.78131359    -0.02260
Br2081     Br  0.93603850  0.30333626  0.80584137    -0.01960
H2082       H  0.91717548  0.29112481  0.72069204     0.10200
H2083       H  0.82742349  0.22992801  0.80102174     0.08220
Br2084     Br  0.80840304  0.21710051  0.71694596    -0.02390
C2085       C  0.87219304  0.09175150  0.78328748    -0.09020
C2086       C  0.87380574  0.11562837  0.80435425     0.07170
C2087       C  0.87533475  0.13886687  0.78149611    -0.02790
C2088       C  0.87552597  0.13800969  0.73843181    -0.07240
C2089       C  0.87390442  0.11419099  0.71730173     0.06290
C2090       C  0.87228564  0.09088809  0.74003705    -0.02260
Br2091     Br  0.87140600  0.05809256  0.71369112    -0.01960
H2092       H  0.87107060  0.07382781  0.80057885     0.10200
H2093       H  0.87624338  0.15579294  0.72124477     0.08220
Br2094     Br  0.87512240  0.17141872  0.80709292    -0.02390
C2095       C  0.58443285  0.21181146  0.78367678    -0.09020
C2096       C  0.60961559  0.23214281  0.80462524     0.07170
C2097       C  0.63407005  0.25200716  0.78135140    -0.02790
C2098       C  0.63302760  0.25105017  0.73823302    -0.07240
C2099       C  0.60789931  0.23080511  0.71721394     0.06290
C2100       C  0.58338906  0.21095076  0.74037931    -0.02260
Br2101     Br  0.54845234  0.18142425  0.71479790    -0.01960
H2102       H  0.56553654  0.19637936  0.80111776     0.10200
H2103       H  0.65181667  0.26681908  0.72091676     0.08220
Br2104     Br  0.66882944  0.28248773  0.80624229    -0.02390
C2105       C  0.60575704  0.39839947  0.73908721    -0.09020
C2106       C  0.60962110  0.37759346  0.71765970     0.07170
C2107       C  0.61321222  0.35698174  0.74011810    -0.02790
C2108       C  0.61278524  0.35736700  0.78330651    -0.07240
C2109       C  0.60890516  0.37812105  0.80477654     0.06290
C2110       C  0.60523058  0.39868970  0.78240595    -0.02260
Br2111     Br  0.59821263  0.42663901  0.80973542    -0.01960
H2112       H  0.60280904  0.41420980  0.72205613     0.10200
H2113       H  0.61587185  0.34161594  0.80028194     0.08220
Br2114     Br  0.61991213  0.32860017  0.71326987    -0.02390
C2115       C  0.73314186  0.38162955  0.78354562    -0.09020
C2116       C  0.75369560  0.37720713  0.80433792     0.07170
C2117       C  0.77371374  0.37290318  0.78097991    -0.02790
C2118       C  0.77274840  0.37299157  0.73772579    -0.07240
C2119       C  0.75218369  0.37745749  0.71697588     0.06290
C2120       C  0.73212962  0.38168621  0.74041758    -0.02260
Br2121     Br  0.70153407  0.38567527  0.71571158    -0.01960
H2122       H  0.71728333  0.38442495  0.80104118     0.10200
H2123       H  0.78835804  0.36985692  0.72015317     0.08220
Br2124     Br  0.80371497  0.36826069  0.80622344    -0.02390
C2125       C  0.75150127  0.87684406  0.17113309     0.03260
C2126       C  0.75211853  0.89970158  0.14881582    -0.12890
C2127       C  0.74818098  0.89766480  0.10584170     0.00760
C2128       C  0.74473132  0.87303149  0.08486653    -0.11410
C2129       C  0.74645271  0.85113888  0.10639943     0.03260
C2130       C  0.74972267  0.85307484  0.14953100    -0.10830
H2131       H  0.75467196  0.91866884  0.16511189     0.08850
H2132       H  0.74195511  0.87149042  0.05160490     0.06380
H2133       H  0.74996955  0.83564044  0.16638565     0.06230
C2134       C  0.75306033  0.87662218  0.35018664     0.03260
C2135       C  0.75270629  0.89919563  0.37232737    -0.12890
C2136       C  0.74851817  0.89731698  0.41530557     0.00760
C2137       C  0.74505766  0.87278535  0.43637036    -0.11410
C2138       C  0.74676037  0.85073785  0.41488691     0.03260
C2139       C  0.75032578  0.85255171  0.37178534    -0.10830
H2140       H  0.75484106  0.91787656  0.35587727     0.08850
H2141       H  0.74213283  0.87137143  0.46963478     0.06530
H2142       H  0.75008957  0.83478566  0.35497440     0.06230
C2143       C  0.60936088  0.87800562  0.35042732     0.03260
C2144       C  0.63296663  0.90010061  0.37196472    -0.12890
C2145       C  0.63530244  0.89814643  0.41492606     0.00760
C2146       C  0.61369119  0.87400010  0.43628583    -0.11410
C2147       C  0.58929970  0.85250692  0.41527510     0.03260
C2148       C  0.58733772  0.85453198  0.37229547    -0.10830
H2149       H  0.65000864  0.91825076  0.35506752     0.08850
H2150       H  0.61531655  0.87248442  0.46947237     0.06380
H2151       H  0.56902849  0.83750948  0.35567759     0.06230
C2152       C  0.60995167  0.87757388  0.17199653     0.03260
C2153       C  0.58754169  0.85446427  0.15012729    -0.12890
C2154       C  0.58924407  0.85263647  0.10702734     0.00760
C2155       C  0.61356302  0.87418144  0.08581144    -0.11410
C2156       C  0.63534441  0.89819310  0.10715037     0.03260
C2157       C  0.63334912  0.89987056  0.15029707    -0.10830
H2158       H  0.56924780  0.83744259  0.16685567     0.08850
H2159       H  0.61500803  0.87281066  0.05251961     0.06380
H2160       H  0.65051948  0.91791085  0.16714540     0.06230
C2161       C  0.60805275  0.73178450  0.17135880     0.03260
C2162       C  0.58703436  0.73511520  0.14990754    -0.12890
C2163       C  0.58925565  0.73950443  0.10695413     0.00760
C2164       C  0.61309959  0.74137521  0.08553346    -0.11410
C2165       C  0.63382137  0.73729900  0.10639431     0.03260
C2166       C  0.63105987  0.73228787  0.14916037    -0.10830
H2167       H  0.56942416  0.73521905  0.16674469     0.08850
H2168       H  0.61492500  0.74487818  0.05240391     0.06380
H2169       H  0.64739150  0.72974115  0.16548063     0.06230
C2170       C  0.60966830  0.73300858  0.35048344     0.03260
C2171       C  0.58802010  0.73551084  0.37197510    -0.12890
C2172       C  0.58966228  0.73943574  0.41504342     0.00760
C2173       C  0.61322381  0.74106116  0.43659101    -0.11410
C2174       C  0.63403766  0.73689248  0.41577405     0.03260
C2175       C  0.63181205  0.73227843  0.37289911    -0.10830
H2176       H  0.57040683  0.73535889  0.35506140     0.08850
H2177       H  0.61470723  0.74435692  0.46978066     0.06380
H2178       H  0.64801319  0.72929265  0.35669291     0.06230
C2179       C  0.87307040  0.61567375  0.34998701     0.03260
C2180       C  0.89534897  0.63862323  0.37220360    -0.12890
C2181       C  0.89299675  0.64070720  0.41507511     0.00760
C2182       C  0.86849786  0.61917332  0.43593145    -0.11410
C2183       C  0.84706988  0.59503751  0.41434571     0.03260
C2184       C  0.84948126  0.59336514  0.37134750    -0.10830
H2185       H  0.91403289  0.65543092  0.35584032     0.08850
H2186       H  0.86668944  0.62060756  0.46914753     0.06380
H2187       H  0.83246134  0.57530491  0.35433492     0.06230
C2188       C  0.87315916  0.61426553  0.17168282     0.03260
C2189       C  0.84922936  0.59255742  0.15022031    -0.12890
C2190       C  0.84670726  0.59481865  0.10742478     0.00760
C2191       C  0.86815578  0.61915931  0.08619709    -0.11410
C2192       C  0.89265777  0.64045531  0.10719716     0.03260
C2193       C  0.89507118  0.63784234  0.14986122    -0.10830
H2194       H  0.83206080  0.57446305  0.16702904     0.08850
H2195       H  0.86634074  0.62096171  0.05311205     0.06380
H2196       H  0.91361553  0.65462992  0.16640003     0.06230
C2197       C  0.87123123  0.75929749  0.17131351     0.03260
C2198       C  0.84971258  0.76073468  0.14829995    -0.12890
C2199       C  0.84704949  0.75498216  0.10574042     0.00760
C2200       C  0.86773739  0.75036551  0.08538388    -0.11410
C2201       C  0.89128796  0.75217397  0.10729212     0.03260
C2202       C  0.89262141  0.75605545  0.15027945    -0.10830
H2203       H  0.83421347  0.76510373  0.16381908     0.08850
H2204       H  0.86621609  0.74667075  0.05228373     0.06380
H2205       H  0.90992202  0.75575051  0.16740302     0.06230
C2206       C  0.87311122  0.75931784  0.35058905     0.03260
C2207       C  0.89346567  0.75487927  0.37193898    -0.12890
C2208       C  0.89155938  0.75113425  0.41492762     0.00760
C2209       C  0.86788394  0.74967010  0.43641653    -0.11410
C2210       C  0.84733562  0.75403715  0.41554390     0.03260
C2211       C  0.85053899  0.75962862  0.37297465    -0.10830
H2212       H  0.91042538  0.75354912  0.35517348     0.08850
H2213       H  0.86605495  0.74624349  0.46956011     0.06380
H2214       H  0.83471096  0.76310192  0.35690261     0.06230
C2215       C  0.72730978  0.61367940  0.35010456     0.03260
C2216       C  0.72989810  0.59229797  0.37160854    -0.12890
C2217       C  0.73499908  0.59485976  0.41435090     0.00760
C2218       C  0.73790376  0.61928205  0.43543408    -0.11410
C2219       C  0.73426508  0.64026924  0.41440665     0.03260
C2220       C  0.72880397  0.63724892  0.37172315    -0.10830
H2221       H  0.72863248  0.57402704  0.35483377     0.08850
H2222       H  0.74174627  0.62131855  0.46847553     0.06380
H2223       H  0.72687372  0.65381134  0.35500953     0.06230
C2224       C  0.72834949  0.61485741  0.17198507     0.03260
C2225       C  0.73004008  0.59298528  0.15008859    -0.12890
C2226       C  0.73475080  0.59525347  0.10723820     0.00760
C2227       C  0.73770152  0.61965409  0.08629880    -0.11410
C2228       C  0.73452997  0.64094986  0.10765636     0.03260
C2229       C  0.72969320  0.63833775  0.15056588    -0.10830
H2230       H  0.72867409  0.57468791  0.16670092     0.08850
H2231       H  0.74124037  0.62145215  0.05315063     0.06380
H2232       H  0.72816045  0.65512800  0.16752663     0.06230
O2233       O  0.76377282  0.81879768  0.09423583    -0.75160
O2234       O  0.72605230  0.81445981  0.05541693    -0.54070
C2235       C  0.74528969  0.82652072  0.08388185     0.78570
O2236       O  0.81386292  0.77026769  0.42708932    -0.59760
O2237       O  0.81051430  0.73313885  0.46633430    -0.52790
C2238       C  0.82233696  0.75241711  0.43784758     0.70580
O2239       O  0.76378220  0.81818807  0.42676329    -0.74320
O2240       O  0.72620612  0.81430231  0.46610774    -0.54880
C2241       C  0.74542231  0.82612464  0.43738983     0.76590
O2242       O  0.81388085  0.77123738  0.09353315    -0.59460
O2243       O  0.81048508  0.73363907  0.05495701    -0.52580
C2244       C  0.82229566  0.75324127  0.08310797     0.73180
Zr2245     Zr  0.77744232  0.78338461  0.07194446     2.54710
O2246       O  0.82270085  0.82957556  0.06805355    -0.80030
O2247       O  0.77790211  0.78300942  0.14722293    -0.93440
Zr2248     Zr  0.77752582  0.78291919  0.44891689     2.64680
O2249       O  0.82261749  0.82933107  0.45193508    -0.98400
O2250       O  0.77783936  0.78256070  0.37364779    -0.80460
O2251       O  0.76386552  0.79762118  0.01041849    -0.83820
O2252       O  0.79228974  0.77001104  0.01046050    -2.18530
O2253       O  0.71760308  0.67367073  0.09583454    -0.67210
O2254       O  0.75486533  0.67725054  0.05610143    -0.51770
C2255       C  0.73585327  0.66561576  0.08513565     0.71560
O2256       O  0.66664969  0.71990364  0.42816225    -0.60110
O2257       O  0.67051611  0.75779254  0.46652821    -0.52090
C2258       C  0.65855391  0.73818297  0.43844231     0.73370
O2259       O  0.71735847  0.67297331  0.42655324    -0.71510
O2260       O  0.75480197  0.67692234  0.46562702    -0.50190
C2261       C  0.73566090  0.66503526  0.43697021     0.74750
O2262       O  0.66680811  0.72061811  0.09424421    -0.66840
O2263       O  0.67043236  0.75802419  0.05536886    -0.54040
C2264       C  0.65855955  0.73868474  0.08377060     0.73130
Zr2265     Zr  0.70341611  0.70838097  0.07257114     2.77540
O2266       O  0.65801233  0.66221470  0.07045204    -0.97590
O2267       O  0.70380048  0.70966823  0.14779665    -0.78410
Zr2268     Zr  0.70344616  0.70804411  0.44938301     2.70070
O2269       O  0.65839579  0.66158143  0.45129906    -0.79660
O2270       O  0.70419897  0.70993900  0.37415773    -0.98740
Zr2271     Zr  0.71218959  0.77290761  0.01080864     2.21500
Zr2272     Zr  0.76868380  0.71833065  0.01071246     2.11130
O2273       O  0.71693765  0.69375429  0.01094334    -2.47430
O2274       O  0.68849106  0.72129148  0.01101970    -0.79450
O2275       O  0.75484520  0.73203961  0.07313553    -0.71650
O2276       O  0.72614506  0.75927245  0.44834658    -2.32600
O2277       O  0.72607966  0.75964866  0.07324333    -2.28810
O2278       O  0.75487691  0.73156210  0.44821228    -0.73400
H2279       H  0.81315272  0.77855483  0.01041272     0.78590
H2280       H  0.71970681  0.76526927  0.42442436     0.79680
H2281       H  0.70885044  0.67296183  0.01097063     0.81900
H2282       H  0.71966799  0.76581013  0.09721255     0.79510
H2283       H  0.75727555  0.77470668  0.36575688     0.42550
H2284       H  0.72395699  0.71415829  0.36631983     0.41520
H2285       H  0.64867825  0.66224699  0.47712540     0.41200
H2286       H  0.66266624  0.64899785  0.05489755     0.39130
H2287       H  0.72465158  0.71963631  0.15516459     0.42260
H2288       H  0.75860830  0.77984823  0.15564293     0.37050
H2289       H  0.81972891  0.84006529  0.04512127     0.43160
H2290       H  0.83616920  0.82535463  0.46762931     0.39580
H2291       H  0.65496381  0.65502421  0.09925978     0.44500
H2292       H  0.79168939  0.80335998  0.15513724     0.43220
H2293       H  0.83016985  0.83273008  0.42324128     0.43350
H2294       H  0.69126125  0.68960105  0.36531422     0.43710
O2295       O  0.53958697  0.81971070  0.42784548    -0.75160
O2296       O  0.57352137  0.81620415  0.46648186    -0.54070
C2297       C  0.56598039  0.82791135  0.43807081     0.78570
O2298       O  0.94107603  0.76891924  0.09610106    -0.59760
O2299       O  0.90756528  0.73184369  0.05619799    -0.52790
C2300       C  0.91478834  0.75072881  0.08523970     0.70580
O2301       O  0.53946665  0.81981306  0.09498152    -0.74320
O2302       O  0.57341239  0.81634754  0.05565597    -0.54880
C2303       C  0.56586960  0.82805034  0.08435227     0.76590
O2304       O  0.94122646  0.76815168  0.42663882    -0.59460
O2305       O  0.90752221  0.73128113  0.46669353    -0.52580
C2306       C  0.91488500  0.74992725  0.43742204     0.73180
Zr2307     Zr  0.99052160  0.78356511  0.44995663     2.54710
O2308       O  0.98903193  0.82841220  0.45554229    -0.80030
O2309       O  0.99033090  0.78508134  0.37470800    -0.93440
Zr2310     Zr  0.99042473  0.78376935  0.07288346     2.64680
O2311       O  0.98988189  0.82914096  0.06840551    -0.98400
O2312       O  0.99063135  0.78528171  0.14811221    -0.80460
O2313       O  0.51868850  0.79849366  0.01131782    -0.83820
O2314       O  0.96235002  0.76999724  0.01148714    -2.18530
O2315       O  0.94251442  0.67396671  0.42691446    -0.67210
O2316       O  0.90847218  0.67670958  0.46687191    -0.51770
C2317       C  0.91612252  0.66537950  0.43780350     0.71560
O2318       O  0.53983492  0.72277192  0.09473722    -0.60110
O2319       O  0.57370720  0.76051581  0.05604892    -0.52090
C2320       C  0.56617681  0.74115507  0.08444760     0.73370
O2321       O  0.94219976  0.67384819  0.09538840    -0.71510
O2322       O  0.90825968  0.67678812  0.05609345    -0.50190
C2323       C  0.91583179  0.66531664  0.08476275     0.74750
O2324       O  0.54012808  0.72278136  0.42713672    -0.66840
O2325       O  0.57382550  0.76035666  0.46615916    -0.54040
C2326       C  0.56642710  0.74107292  0.43755382     0.73130
Zr2327     Zr  0.99127364  0.70955589  0.44968418     2.77540
O2328       O  0.99179389  0.66411039  0.45160713    -0.97590
O2329       O  0.99163301  0.71056488  0.37445931    -0.78410
Zr2330     Zr  0.99104898  0.70971737  0.07291791     2.70070
O2331       O  0.99092849  0.66395431  0.07130665    -0.79660
O2332       O  0.99204420  0.71175260  0.14815098    -0.98740
Zr2333     Zr  0.54652266  0.77468377  0.01114565     2.21500
Zr2334     Zr  0.93533177  0.71824900  0.01153130     2.11130
O2335       O  0.96326231  0.69460360  0.01136274    -2.47430
O2336       O  0.51924651  0.72306123  0.01123881    -0.79450
O2337       O  0.96267187  0.73218394  0.44900558    -0.71650
O2338       O  0.51890889  0.76099473  0.07359397    -2.32600
O2339       O  0.51907624  0.76084598  0.44881129    -2.28810
O2340       O  0.96243922  0.73235148  0.07402455    -0.73400
H2341       H  0.94954456  0.77795795  0.01144740     0.78590
H2342       H  0.53137448  0.76732494  0.09753760     0.79680
H2343       H  0.95087608  0.67375427  0.01140273     0.81900
H2344       H  0.53157726  0.76713841  0.42477330     0.79510
H2345       H  0.50099844  0.77501325  0.15641977     0.42550
H2346       H  0.97580969  0.71491215  0.15592897     0.41520
H2347       H  0.50081648  0.66451385  0.04502739     0.41200
H2348       H  0.97398336  0.65053866  0.46701842     0.39130
H2349       H  0.98166055  0.72144394  0.36732782     0.42260
H2350       H  0.50652247  0.78213290  0.36590373     0.37050
H2351       H  0.50401648  0.84007928  0.47635110     0.43160
H2352       H  0.97146149  0.82399728  0.05423688     0.39580
H2353       H  0.98785337  0.65693308  0.42274759     0.44500
H2354       H  0.99697303  0.80559898  0.36791387     0.43220
H2355       H  0.98683656  0.83335138  0.09725044     0.43350
H2356       H  0.98559614  0.69162462  0.15697394     0.43710
O2357       O  0.76589496  0.94712938  0.42754732    -0.75160
O2358       O  0.72791904  0.91347978  0.46621753    -0.54070
C2359       C  0.74742374  0.92081589  0.43793106     0.78570
O2360       O  0.81360748  0.54525457  0.09550171    -0.59760
O2361       O  0.81064710  0.57907818  0.05587954    -0.52790
C2362       C  0.82198277  0.57158695  0.08487844     0.70580
O2363       O  0.76563639  0.94738747  0.09362187    -0.74320
O2364       O  0.72792117  0.91367664  0.05483159    -0.54880
C2365       C  0.74725125  0.92107675  0.08316115     0.76590
O2366       O  0.81398257  0.54532025  0.42580787    -0.59460
O2367       O  0.81080417  0.57907307  0.46584284    -0.52580
C2368       C  0.82228986  0.57164544  0.43670391     0.73180
Zr2369     Zr  0.77897065  0.99631032  0.44904595     2.54710
O2370       O  0.82502507  0.99712568  0.45379669    -0.80030
O2371       O  0.78008496  0.49630684  0.37375989    -0.93440
Zr2372     Zr  0.77882352  0.99637041  0.07189803     2.64680
O2373       O  0.82467092  0.99666065  0.06721487    -0.98400
O2374       O  0.77954710  0.49588054  0.14713027    -0.80460
O2375       O  0.76522241  0.96816408  0.01043852    -0.83820
O2376       O  0.79362661  0.52448420  0.01050808    -2.18530
O2377       O  0.71850960  0.54533656  0.42630997    -0.67210
O2378       O  0.75547685  0.57922221  0.46588726    -0.51770
C2379       C  0.73654580  0.57169884  0.43693906     0.71560
O2380       O  0.66822743  0.94781524  0.09485471    -0.60110
O2381       O  0.67192701  0.91393795  0.05583154    -0.52090
C2382       C  0.66009605  0.92145901  0.08444104     0.73370
O2383       O  0.71815490  0.54563647  0.09521121    -0.71510
O2384       O  0.75533461  0.57941968  0.05563069    -0.50190
C2385       C  0.73624665  0.57198007  0.08454981     0.74750
O2386       O  0.66843334  0.94771564  0.42700606    -0.66840
O2387       O  0.67187085  0.91385935  0.46589885    -0.54040
C2388       C  0.66014428  0.92137132  0.43742960     0.73130
Zr2389     Zr  0.70456864  0.99645203  0.44934401     2.77540
O2390       O  0.65887710  0.99655487  0.45195886    -0.97590
O2391       O  0.70520090  0.99606072  0.37410948    -0.78410
Zr2392     Zr  0.70450459  0.99658482  0.07265799     2.70070
O2393       O  0.65909351  0.99721408  0.07137120    -0.79660
O2394       O  0.70563536  0.99575675  0.14787035    -0.98740
Zr2395     Zr  0.71350268  0.94080578  0.01062599     2.21500
Zr2396     Zr  0.76944787  0.55200037  0.01082125     2.11130
O2397       O  0.71774649  0.52443041  0.01101300    -2.47430
O2398       O  0.68962562  0.96848474  0.01097584    -0.79450
O2399       O  0.75593823  0.52460950  0.44839411    -0.71650
O2400       O  0.72745889  0.96831661  0.07304508    -2.32600
O2401       O  0.72757604  0.96821995  0.44821439    -2.28810
O2402       O  0.75587206  0.52475433  0.07325228    -0.73400
H2403       H  0.81445748  0.53708640  0.01041276     0.78590
H2404       H  0.72115412  0.95582439  0.09698858     0.79680
H2405       H  0.70949911  0.53698489  0.01111963     0.81900
H2406       H  0.72131511  0.95570285  0.42423699     0.79510
H2407       H  0.75883474  0.98474126  0.15538236     0.42550
H2408       H  0.72538132  0.51146163  0.15528630     0.41520
H2409       H  0.64937073  0.98662891  0.04575693     0.41200
H2410       H  0.66337715  0.51445857  0.46727750     0.39130
H2411       H  0.72607164  0.50569916  0.36670695     0.42260
H2412       H  0.76084588  0.98008180  0.36546786     0.37050
H2413       H  0.82173993  0.98264186  0.47537245     0.43160
H2414       H  0.83811815  0.51503711  0.05296454     0.39580
H2415       H  0.65567712  0.00047307  0.42314127     0.44500
H2416       H  0.79390983  0.98965258  0.36648802     0.43220
H2417       H  0.83182222  0.99967689  0.09602523     0.43350
H2418       H  0.69262165  0.00302538  0.15691984     0.43710
C2419       C  0.75178262  0.61905771  0.28303714    -0.09020
C2420       C  0.72646739  0.61312153  0.30454174     0.07170
C2421       C  0.70152745  0.60768395  0.28231712    -0.02790
C2422       C  0.70232311  0.60838297  0.23897699    -0.07240
C2423       C  0.72774326  0.61434635  0.21756256     0.06290
C2424       C  0.75262863  0.61982250  0.23993051    -0.02260
Br2425     Br  0.78867165  0.62966538  0.21301665    -0.01960
H2426       H  0.77114614  0.62358181  0.29995010     0.10200
H2427       H  0.68307155  0.60405534  0.22195581     0.08220
Br2428     Br  0.66588532  0.59834537  0.30988200    -0.02390
C2429       C  0.89747613  0.77767742  0.23811811    -0.09020
C2430       C  0.87115746  0.76041681  0.21722047     0.07170
C2431       C  0.84566314  0.74338026  0.24071788    -0.02790
C2432       C  0.84707848  0.74379870  0.28375195    -0.07240
C2433       C  0.87338783  0.76080015  0.30469920     0.06290
C2434       C  0.89886450  0.77800423  0.28131359    -0.02260
Br2435     Br  0.93603850  0.80333627  0.30584137    -0.01960
H2436       H  0.91717548  0.79112482  0.22069205     0.10200
H2437       H  0.82742349  0.72992801  0.30102175     0.08220
Br2438     Br  0.80840304  0.71710051  0.21694596    -0.02390
C2439       C  0.87219304  0.59175151  0.28328748    -0.09020
C2440       C  0.87380574  0.61562837  0.30435425     0.07170
C2441       C  0.87533475  0.63886687  0.28149611    -0.02790
C2442       C  0.87552596  0.63800969  0.23843181    -0.07240
C2443       C  0.87390442  0.61419099  0.21730173     0.06290
C2444       C  0.87228564  0.59088810  0.24003705    -0.02260
Br2445     Br  0.87140602  0.55809257  0.21369112    -0.01960
H2446       H  0.87107061  0.57382782  0.30057885     0.10200
H2447       H  0.87624337  0.65579293  0.22124477     0.08220
Br2448     Br  0.87512238  0.67141872  0.30709292    -0.02390
C2449       C  0.58443286  0.71181147  0.28367678    -0.09020
C2450       C  0.60961560  0.73214283  0.30462524     0.07170
C2451       C  0.63407006  0.75200719  0.28135140    -0.02790
C2452       C  0.63302761  0.75105020  0.23823302    -0.07240
C2453       C  0.60789932  0.73080513  0.21721394     0.06290
C2454       C  0.58338907  0.71095077  0.24037931    -0.02260
Br2455     Br  0.54845236  0.68142425  0.21479790    -0.01960
H2456       H  0.56553655  0.69637936  0.30111776     0.10200
H2457       H  0.65181667  0.76681912  0.22091676     0.08220
Br2458     Br  0.66882943  0.78248777  0.30624229    -0.02390
C2459       C  0.60575706  0.89839949  0.23908721    -0.09020
C2460       C  0.60962110  0.87759346  0.21765970     0.07170
C2461       C  0.61321220  0.85698173  0.24011810    -0.02790
C2462       C  0.61278522  0.85736699  0.28330652    -0.07240
C2463       C  0.60890516  0.87812106  0.30477654     0.06290
C2464       C  0.60523059  0.89868972  0.28240595    -0.02260
Br2465     Br  0.59821267  0.92663905  0.30973542    -0.01960
H2466       H  0.60280907  0.91420983  0.22205613     0.10200
H2467       H  0.61587182  0.84161593  0.30028194     0.08220
Br2468     Br  0.61991209  0.82860016  0.21326988    -0.02390
C2469       C  0.73314186  0.88162955  0.28354562    -0.09020
C2470       C  0.75369560  0.87720714  0.30433792     0.07170
C2471       C  0.77371375  0.87290320  0.28097992    -0.02790
C2472       C  0.77274841  0.87299159  0.23772579    -0.07240
C2473       C  0.75218369  0.87745749  0.21697588     0.06290
C2474       C  0.73212962  0.88168620  0.24041758    -0.02260
Br2475     Br  0.70153405  0.88567524  0.21571158    -0.01960
H2476       H  0.71728333  0.88442493  0.30104119     0.10200
H2477       H  0.78835806  0.86985695  0.22015318     0.08220
Br2478     Br  0.80371499  0.86826073  0.30622344    -0.02390
C2479       C  0.75150127  0.87684406  0.67113309     0.03260
C2480       C  0.75211853  0.89970157  0.64881582    -0.12890
C2481       C  0.74818098  0.89766480  0.60584170     0.00760
C2482       C  0.74473132  0.87303149  0.58486653    -0.11410
C2483       C  0.74645271  0.85113888  0.60639943     0.03260
C2484       C  0.74972267  0.85307484  0.64953100    -0.10830
H2485       H  0.75467196  0.91866883  0.66511189     0.08850
H2486       H  0.74195511  0.87149042  0.55160490     0.06380
H2487       H  0.74996955  0.83564044  0.66638565     0.06230
C2488       C  0.75306033  0.87662218  0.85018664     0.03260
C2489       C  0.75270629  0.89919564  0.87232737    -0.12890
C2490       C  0.74851817  0.89731698  0.91530557     0.00760
C2491       C  0.74505767  0.87278535  0.93637036    -0.11410
C2492       C  0.74676037  0.85073785  0.91488691     0.03260
C2493       C  0.75032578  0.85255171  0.87178534    -0.10830
H2494       H  0.75484107  0.91787656  0.85587727     0.08850
H2495       H  0.74213283  0.87137143  0.96963477     0.06530
H2496       H  0.75008958  0.83478566  0.85497440     0.06230
C2497       C  0.60936087  0.87800563  0.85042732     0.03260
C2498       C  0.63296663  0.90010061  0.87196472    -0.12890
C2499       C  0.63530244  0.89814643  0.91492606     0.00760
C2500       C  0.61369120  0.87400010  0.93628583    -0.11410
C2501       C  0.58929970  0.85250692  0.91527510     0.03260
C2502       C  0.58733772  0.85453198  0.87229547    -0.10830
H2503       H  0.65000864  0.91825076  0.85506752     0.08850
H2504       H  0.61531655  0.87248442  0.96947236     0.06380
H2505       H  0.56902848  0.83750948  0.85567759     0.06230
C2506       C  0.60995166  0.87757388  0.67199654     0.03260
C2507       C  0.58754169  0.85446428  0.65012729    -0.12890
C2508       C  0.58924407  0.85263647  0.60702734     0.00760
C2509       C  0.61356302  0.87418144  0.58581144    -0.11410
C2510       C  0.63534441  0.89819310  0.60715037     0.03260
C2511       C  0.63334912  0.89987056  0.65029708    -0.10830
H2512       H  0.56924779  0.83744260  0.66685567     0.08850
H2513       H  0.61500802  0.87281066  0.55251961     0.06380
H2514       H  0.65051948  0.91791085  0.66714540     0.06230
C2515       C  0.60805275  0.73178450  0.67135880     0.03260
C2516       C  0.58703436  0.73511520  0.64990754    -0.12890
C2517       C  0.58925565  0.73950443  0.60695412     0.00760
C2518       C  0.61309959  0.74137521  0.58553345    -0.11410
C2519       C  0.63382137  0.73729900  0.60639431     0.03260
C2520       C  0.63105987  0.73228787  0.64916036    -0.10830
H2521       H  0.56942416  0.73521905  0.66674469     0.08850
H2522       H  0.61492500  0.74487818  0.55240391     0.06380
H2523       H  0.64739149  0.72974114  0.66548063     0.06230
C2524       C  0.60966830  0.73300858  0.85048344     0.03260
C2525       C  0.58802010  0.73551084  0.87197510    -0.12890
C2526       C  0.58966228  0.73943574  0.91504342     0.00760
C2527       C  0.61322382  0.74106116  0.93659101    -0.11410
C2528       C  0.63403767  0.73689247  0.91577405     0.03260
C2529       C  0.63181204  0.73227842  0.87289911    -0.10830
H2530       H  0.57040683  0.73535889  0.85506140     0.08850
H2531       H  0.61470723  0.74435692  0.96978066     0.06380
H2532       H  0.64801319  0.72929264  0.85669292     0.06230
C2533       C  0.87307040  0.61567375  0.84998701     0.03260
C2534       C  0.89534896  0.63862323  0.87220360    -0.12890
C2535       C  0.89299675  0.64070719  0.91507511     0.00760
C2536       C  0.86849786  0.61917332  0.93593145    -0.11410
C2537       C  0.84706987  0.59503750  0.91434571     0.03260
C2538       C  0.84948126  0.59336514  0.87134750    -0.10830
H2539       H  0.91403289  0.65543092  0.85584032     0.08850
H2540       H  0.86668944  0.62060756  0.96914753     0.06380
H2541       H  0.83246134  0.57530491  0.85433492     0.06230
C2542       C  0.87315916  0.61426554  0.67168282     0.03260
C2543       C  0.84922935  0.59255742  0.65022031    -0.12890
C2544       C  0.84670726  0.59481865  0.60742478     0.00760
C2545       C  0.86815578  0.61915932  0.58619709    -0.11410
C2546       C  0.89265777  0.64045532  0.60719716     0.03260
C2547       C  0.89507117  0.63784235  0.64986122    -0.10830
H2548       H  0.83206080  0.57446305  0.66702904     0.08850
H2549       H  0.86634074  0.62096171  0.55311205     0.06380
H2550       H  0.91361552  0.65462993  0.66640003     0.06230
C2551       C  0.87123123  0.75929750  0.67131351     0.03260
C2552       C  0.84971258  0.76073468  0.64829995    -0.12890
C2553       C  0.84704949  0.75498216  0.60574042     0.00760
C2554       C  0.86773739  0.75036550  0.58538388    -0.11410
C2555       C  0.89128796  0.75217397  0.60729212     0.03260
C2556       C  0.89262141  0.75605545  0.65027945    -0.10830
H2557       H  0.83421347  0.76510373  0.66381908     0.08850
H2558       H  0.86621609  0.74667075  0.55228373     0.06380
H2559       H  0.90992202  0.75575051  0.66740302     0.06230
C2560       C  0.87311121  0.75931784  0.85058905     0.03260
C2561       C  0.89346567  0.75487927  0.87193898    -0.12890
C2562       C  0.89155938  0.75113424  0.91492762     0.00760
C2563       C  0.86788394  0.74967010  0.93641653    -0.11410
C2564       C  0.84733562  0.75403714  0.91554390     0.03260
C2565       C  0.85053899  0.75962862  0.87297465    -0.10830
H2566       H  0.91042538  0.75354912  0.85517348     0.08850
H2567       H  0.86605494  0.74624349  0.96956011     0.06380
H2568       H  0.83471096  0.76310192  0.85690262     0.06230
C2569       C  0.72730979  0.61367941  0.85010456     0.03260
C2570       C  0.72989810  0.59229798  0.87160854    -0.12890
C2571       C  0.73499908  0.59485976  0.91435090     0.00760
C2572       C  0.73790377  0.61928205  0.93543409    -0.11410
C2573       C  0.73426508  0.64026924  0.91440666     0.03260
C2574       C  0.72880398  0.63724893  0.87172315    -0.10830
H2575       H  0.72863248  0.57402704  0.85483377     0.08850
H2576       H  0.74174627  0.62131855  0.96847553     0.06380
H2577       H  0.72687373  0.65381135  0.85500953     0.06230
C2578       C  0.72834950  0.61485742  0.67198507     0.03260
C2579       C  0.73004008  0.59298528  0.65008859    -0.12890
C2580       C  0.73475081  0.59525347  0.60723820     0.00760
C2581       C  0.73770152  0.61965409  0.58629880    -0.11410
C2582       C  0.73452997  0.64094986  0.60765636     0.03260
C2583       C  0.72969321  0.63833775  0.65056588    -0.10830
H2584       H  0.72867410  0.57468792  0.66670092     0.08850
H2585       H  0.74124037  0.62145215  0.55315063     0.06380
H2586       H  0.72816045  0.65512800  0.66752663     0.06230
O2587       O  0.76377282  0.81879768  0.59423583    -0.75160
O2588       O  0.72605230  0.81445980  0.55541693    -0.54070
C2589       C  0.74528969  0.82652072  0.58388185     0.78570
O2590       O  0.81386292  0.77026769  0.92708932    -0.59760
O2591       O  0.81051430  0.73313885  0.96633430    -0.52790
C2592       C  0.82233696  0.75241711  0.93784758     0.70580
O2593       O  0.76378220  0.81818807  0.92676329    -0.74320
O2594       O  0.72620613  0.81430231  0.96610774    -0.54880
C2595       C  0.74542231  0.82612464  0.93738983     0.76590
O2596       O  0.81388084  0.77123737  0.59353315    -0.59460
O2597       O  0.81048508  0.73363907  0.55495701    -0.52580
C2598       C  0.82229566  0.75324127  0.58310797     0.73180
Zr2599     Zr  0.77744231  0.78338461  0.57194446     2.54710
O2600       O  0.82270085  0.82957556  0.56805354    -0.80030
O2601       O  0.77790211  0.78300942  0.64722292    -0.93440
Zr2602     Zr  0.77752583  0.78291919  0.94891689     2.64680
O2603       O  0.82261749  0.82933107  0.95193509    -0.98400
O2604       O  0.77783936  0.78256070  0.87364779    -0.80460
O2605       O  0.76386552  0.79762118  0.51041848    -0.83820
O2606       O  0.79228973  0.77001103  0.51046050    -2.18530
O2607       O  0.71760308  0.67367073  0.59583454    -0.67210
O2608       O  0.75486533  0.67725054  0.55610142    -0.51770
C2609       C  0.73585327  0.66561576  0.58513565     0.71560
O2610       O  0.66664969  0.71990364  0.92816225    -0.60110
O2611       O  0.67051611  0.75779254  0.96652821    -0.52090
C2612       C  0.65855392  0.73818297  0.93844231     0.73370
O2613       O  0.71735847  0.67297331  0.92655324    -0.71510
O2614       O  0.75480198  0.67692234  0.96562702    -0.50190
C2615       C  0.73566090  0.66503526  0.93697021     0.74750
O2616       O  0.66680811  0.72061810  0.59424421    -0.66840
O2617       O  0.67043236  0.75802418  0.55536886    -0.54040
C2618       C  0.65855955  0.73868474  0.58377060     0.73130
Zr2619     Zr  0.70341611  0.70838097  0.57257114     2.77540
O2620       O  0.65801233  0.66221470  0.57045204    -0.97590
O2621       O  0.70380048  0.70966823  0.64779665    -0.78410
Zr2622     Zr  0.70344616  0.70804411  0.94938302     2.70070
O2623       O  0.65839579  0.66158143  0.95129905    -0.79660
O2624       O  0.70419898  0.70993900  0.87415773    -0.98740
Zr2625     Zr  0.71218959  0.77290761  0.51080864     2.21500
Zr2626     Zr  0.76868380  0.71833065  0.51071246     2.11130
O2627       O  0.71693765  0.69375429  0.51094334    -2.47430
O2628       O  0.68849106  0.72129148  0.51101970    -0.79450
O2629       O  0.75484520  0.73203961  0.57313553    -0.71650
O2630       O  0.72614506  0.75927245  0.94834658    -2.32600
O2631       O  0.72607966  0.75964866  0.57324333    -2.28810
O2632       O  0.75487691  0.73156211  0.94821229    -0.73400
H2633       H  0.81315272  0.77855483  0.51041271     0.78590
H2634       H  0.71970682  0.76526927  0.92442436     0.79680
H2635       H  0.70885044  0.67296183  0.51097063     0.81900
H2636       H  0.71966799  0.76581013  0.59721255     0.79510
H2637       H  0.75727556  0.77470668  0.86575689     0.42550
H2638       H  0.72395699  0.71415829  0.86631983     0.41520
H2639       H  0.64867825  0.66224699  0.97712539     0.41200
H2640       H  0.66266624  0.64899785  0.55489756     0.39130
H2641       H  0.72465158  0.71963632  0.65516459     0.42260
H2642       H  0.75860831  0.77984823  0.65564293     0.37050
H2643       H  0.81972891  0.84006529  0.54512126     0.43160
H2644       H  0.83616921  0.82535463  0.96762932     0.39580
H2645       H  0.65496381  0.65502421  0.59925978     0.44500
H2646       H  0.79168939  0.80335998  0.65513723     0.43220
H2647       H  0.83016985  0.83273008  0.92324129     0.43350
H2648       H  0.69126126  0.68960105  0.86531422     0.43710
O2649       O  0.53958697  0.81971070  0.92784548    -0.75160
O2650       O  0.57352137  0.81620415  0.96648186    -0.54070
C2651       C  0.56598039  0.82791134  0.93807080     0.78570
O2652       O  0.94107603  0.76891925  0.59610106    -0.59760
O2653       O  0.90756528  0.73184369  0.55619799    -0.52790
C2654       C  0.91478834  0.75072881  0.58523970     0.70580
O2655       O  0.53946665  0.81981306  0.59498153    -0.74320
O2656       O  0.57341238  0.81634754  0.55565597    -0.54880
C2657       C  0.56586960  0.82805034  0.58435227     0.76590
O2658       O  0.94122646  0.76815168  0.92663882    -0.59460
O2659       O  0.90752221  0.73128112  0.96669353    -0.52580
C2660       C  0.91488500  0.74992725  0.93742203     0.73180
Zr2661     Zr  0.99052160  0.78356510  0.94995663     2.54710
O2662       O  0.98903193  0.82841220  0.95554229    -0.80030
O2663       O  0.99033090  0.78508134  0.87470800    -0.93440
Zr2664     Zr  0.99042473  0.78376935  0.57288347     2.64680
O2665       O  0.98988189  0.82914096  0.56840552    -0.98400
O2666       O  0.99063135  0.78528170  0.64811221    -0.80460
O2667       O  0.51868849  0.79849366  0.51131782    -0.83820
O2668       O  0.96235002  0.76999725  0.51148714    -2.18530
O2669       O  0.94251442  0.67396671  0.92691446    -0.67210
O2670       O  0.90847218  0.67670958  0.96687191    -0.51770
C2671       C  0.91612252  0.66537950  0.93780350     0.71560
O2672       O  0.53983492  0.72277192  0.59473722    -0.60110
O2673       O  0.57370720  0.76051582  0.55604892    -0.52090
C2674       C  0.56617681  0.74115507  0.58444760     0.73370
O2675       O  0.94219976  0.67384819  0.59538840    -0.71510
O2676       O  0.90825968  0.67678812  0.55609344    -0.50190
C2677       C  0.91583179  0.66531664  0.58476275     0.74750
O2678       O  0.54012808  0.72278136  0.92713672    -0.66840
O2679       O  0.57382551  0.76035666  0.96615916    -0.54040
C2680       C  0.56642710  0.74107292  0.93755382     0.73130
Zr2681     Zr  0.99127364  0.70955589  0.94968418     2.77540
O2682       O  0.99179389  0.66411038  0.95160715    -0.97590
O2683       O  0.99163301  0.71056486  0.87445931    -0.78410
Zr2684     Zr  0.99104898  0.70971737  0.57291791     2.70070
O2685       O  0.99092849  0.66395430  0.57130664    -0.79660
O2686       O  0.99204420  0.71175259  0.64815098    -0.98740
Zr2687     Zr  0.54652266  0.77468377  0.51114565     2.21500
Zr2688     Zr  0.93533177  0.71824900  0.51153130     2.11130
O2689       O  0.96326231  0.69460360  0.51136274    -2.47430
O2690       O  0.51924650  0.72306124  0.51123881    -0.79450
O2691       O  0.96267186  0.73218394  0.94900558    -0.71650
O2692       O  0.51890889  0.76099473  0.57359397    -2.32600
O2693       O  0.51907624  0.76084597  0.94881129    -2.28810
O2694       O  0.96243922  0.73235148  0.57402455    -0.73400
H2695       H  0.94954456  0.77795796  0.51144740     0.78590
H2696       H  0.53137448  0.76732494  0.59753760     0.79680
H2697       H  0.95087608  0.67375427  0.51140273     0.81900
H2698       H  0.53157726  0.76713840  0.92477329     0.79510
H2699       H  0.50099844  0.77501324  0.65641977     0.42550
H2700       H  0.97580970  0.71491215  0.65592897     0.41520
H2701       H  0.50081647  0.66451385  0.54502737     0.41200
H2702       H  0.97398335  0.65053865  0.96701843     0.39130
H2703       H  0.98166056  0.72144394  0.86732781     0.42260
H2704       H  0.50652247  0.78213289  0.86590372     0.37050
H2705       H  0.50401647  0.84007928  0.97635109     0.43160
H2706       H  0.97146149  0.82399728  0.55423688     0.39580
H2707       H  0.98785338  0.65693308  0.92274761     0.44500
H2708       H  0.99697303  0.80559898  0.86791387     0.43220
H2709       H  0.98683656  0.83335138  0.59725045     0.43350
H2710       H  0.98559614  0.69162462  0.65697393     0.43710
O2711       O  0.76589496  0.94712938  0.92754732    -0.75160
O2712       O  0.72791905  0.91347978  0.96621753    -0.54070
C2713       C  0.74742375  0.92081589  0.93793106     0.78570
O2714       O  0.81360749  0.54525457  0.59550171    -0.59760
O2715       O  0.81064710  0.57907819  0.55587954    -0.52790
C2716       C  0.82198277  0.57158695  0.58487844     0.70580
O2717       O  0.76563638  0.94738747  0.59362187    -0.74320
O2718       O  0.72792116  0.91367664  0.55483159    -0.54880
C2719       C  0.74725125  0.92107675  0.58316115     0.76590
O2720       O  0.81398257  0.54532025  0.92580787    -0.59460
O2721       O  0.81080417  0.57907307  0.96584284    -0.52580
C2722       C  0.82228986  0.57164544  0.93670391     0.73180
Zr2723     Zr  0.77897066  0.99631032  0.94904595     2.54710
O2724       O  0.82502507  0.99712568  0.95379669    -0.80030
O2725       O  0.78008496  0.49630684  0.87375989    -0.93440
Zr2726     Zr  0.77882352  0.99637041  0.57189804     2.64680
O2727       O  0.82467092  0.99666064  0.56721488    -0.98400
O2728       O  0.77954711  0.49588054  0.64713026    -0.80460
O2729       O  0.76522241  0.96816408  0.51043852    -0.83820
O2730       O  0.79362661  0.52448420  0.51050807    -2.18530
O2731       O  0.71850960  0.54533657  0.92630997    -0.67210
O2732       O  0.75547685  0.57922221  0.96588726    -0.51770
C2733       C  0.73654580  0.57169884  0.93693907     0.71560
O2734       O  0.66822743  0.94781524  0.59485471    -0.60110
O2735       O  0.67192701  0.91393795  0.55583154    -0.52090
C2736       C  0.66009605  0.92145901  0.58444104     0.73370
O2737       O  0.71815491  0.54563647  0.59521121    -0.71510
O2738       O  0.75533461  0.57941969  0.55563069    -0.50190
C2739       C  0.73624665  0.57198007  0.58454981     0.74750
O2740       O  0.66843334  0.94771564  0.92700606    -0.66840
O2741       O  0.67187085  0.91385935  0.96589885    -0.54040
C2742       C  0.66014428  0.92137132  0.93742960     0.73130
Zr2743     Zr  0.70456865  0.99645203  0.94934401     2.77540
O2744       O  0.65887710  0.99655487  0.95195885    -0.97590
O2745       O  0.70520090  0.99606072  0.87410948    -0.78410
Zr2746     Zr  0.70450459  0.99658482  0.57265799     2.70070
O2747       O  0.65909351  0.99721408  0.57137120    -0.79660
O2748       O  0.70563536  0.99575675  0.64787035    -0.98740
Zr2749     Zr  0.71350267  0.94080578  0.51062599     2.21500
Zr2750     Zr  0.76944787  0.55200037  0.51082125     2.11130
O2751       O  0.71774649  0.52443041  0.51101300    -2.47430
O2752       O  0.68962562  0.96848474  0.51097585    -0.79450
O2753       O  0.75593823  0.52460950  0.94839411    -0.71650
O2754       O  0.72745889  0.96831660  0.57304508    -2.32600
O2755       O  0.72757604  0.96821995  0.94821439    -2.28810
O2756       O  0.75587206  0.52475433  0.57325228    -0.73400
H2757       H  0.81445749  0.53708640  0.51041276     0.78590
H2758       H  0.72115411  0.95582438  0.59698858     0.79680
H2759       H  0.70949911  0.53698489  0.51111963     0.81900
H2760       H  0.72131511  0.95570285  0.92423699     0.79510
H2761       H  0.75883473  0.98474126  0.65538236     0.42550
H2762       H  0.72538133  0.51146162  0.65528630     0.41520
H2763       H  0.64937073  0.98662891  0.54575693     0.41200
H2764       H  0.66337715  0.51445857  0.96727750     0.39130
H2765       H  0.72607164  0.50569916  0.86670695     0.42260
H2766       H  0.76084589  0.98008180  0.86546786     0.37050
H2767       H  0.82173993  0.98264186  0.97537245     0.43160
H2768       H  0.83811816  0.51503712  0.55296453     0.39580
H2769       H  0.65567712  0.00047306  0.92314127     0.44500
H2770       H  0.79390984  0.98965259  0.86648802     0.43220
H2771       H  0.83182222  0.99967689  0.59602523     0.43350
H2772       H  0.69262165  0.00302538  0.65691984     0.43710
C2773       C  0.75178263  0.61905772  0.78303714    -0.09020
C2774       C  0.72646739  0.61312153  0.80454174     0.07170
C2775       C  0.70152745  0.60768395  0.78231713    -0.02790
C2776       C  0.70232312  0.60838298  0.73897699    -0.07240
C2777       C  0.72774326  0.61434635  0.71756256     0.06290
C2778       C  0.75262864  0.61982251  0.73993051    -0.02260
Br2779     Br  0.78867165  0.62966539  0.71301665    -0.01960
H2780       H  0.77114615  0.62358182  0.79995010     0.10200
H2781       H  0.68307156  0.60405534  0.72195581     0.08220
Br2782     Br  0.66588533  0.59834537  0.80988200    -0.02390
C2783       C  0.89747613  0.77767742  0.73811811    -0.09020
C2784       C  0.87115746  0.76041681  0.71722047     0.07170
C2785       C  0.84566314  0.74338026  0.74071788    -0.02790
C2786       C  0.84707848  0.74379870  0.78375195    -0.07240
C2787       C  0.87338783  0.76080015  0.80469919     0.06290
C2788       C  0.89886450  0.77800423  0.78131359    -0.02260
Br2789     Br  0.93603850  0.80333627  0.80584137    -0.01960
H2790       H  0.91717548  0.79112482  0.72069205     0.10200
H2791       H  0.82742349  0.72992801  0.80102174     0.08220
Br2792     Br  0.80840304  0.71710051  0.71694596    -0.02390
C2793       C  0.87219304  0.59175151  0.78328748    -0.09020
C2794       C  0.87380574  0.61562837  0.80435425     0.07170
C2795       C  0.87533474  0.63886687  0.78149611    -0.02790
C2796       C  0.87552596  0.63800970  0.73843181    -0.07240
C2797       C  0.87390441  0.61419100  0.71730173     0.06290
C2798       C  0.87228564  0.59088810  0.74003705    -0.02260
Br2799     Br  0.87140601  0.55809257  0.71369112    -0.01960
H2800       H  0.87107061  0.57382782  0.80057885     0.10200
H2801       H  0.87624336  0.65579294  0.72124477     0.08220
Br2802     Br  0.87512238  0.67141872  0.80709293    -0.02390
C2803       C  0.58443285  0.71181147  0.78367678    -0.09020
C2804       C  0.60961560  0.73214283  0.80462524     0.07170
C2805       C  0.63407006  0.75200718  0.78135140    -0.02790
C2806       C  0.63302761  0.75105019  0.73823302    -0.07240
C2807       C  0.60789932  0.73080512  0.71721394     0.06290
C2808       C  0.58338907  0.71095077  0.74037931    -0.02260
Br2809     Br  0.54845235  0.68142425  0.71479790    -0.01960
H2810       H  0.56553655  0.69637937  0.80111776     0.10200
H2811       H  0.65181667  0.76681910  0.72091676     0.08220
Br2812     Br  0.66882944  0.78248775  0.80624229    -0.02390
C2813       C  0.60575705  0.89839949  0.73908722    -0.09020
C2814       C  0.60962109  0.87759347  0.71765971     0.07170
C2815       C  0.61321219  0.85698174  0.74011810    -0.02790
C2816       C  0.61278522  0.85736700  0.78330652    -0.07240
C2817       C  0.60890515  0.87812106  0.80477654     0.06290
C2818       C  0.60523058  0.89868972  0.78240595    -0.02260
Br2819     Br  0.59821266  0.92663905  0.80973543    -0.01960
H2820       H  0.60280906  0.91420983  0.72205614     0.10200
H2821       H  0.61587182  0.84161593  0.80028194     0.08220
Br2822     Br  0.61991208  0.82860016  0.71326987    -0.02390
C2823       C  0.73314186  0.88162955  0.78354562    -0.09020
C2824       C  0.75369561  0.87720714  0.80433792     0.07170
C2825       C  0.77371376  0.87290320  0.78097992    -0.02790
C2826       C  0.77274841  0.87299159  0.73772579    -0.07240
C2827       C  0.75218369  0.87745749  0.71697588     0.06290
C2828       C  0.73212962  0.88168620  0.74041758    -0.02260
Br2829     Br  0.70153405  0.88567524  0.71571159    -0.01960
H2830       H  0.71728333  0.88442493  0.80104119     0.10200
H2831       H  0.78835806  0.86985695  0.72015317     0.08220
Br2832     Br  0.80371500  0.86826073  0.80622344    -0.02390
loop_ 
_geom_bond_atom_site_label_1 
_geom_bond_atom_site_label_2 
_geom_bond_distance 
_geom_bond_site_symmetry_2 
_ccdc_geom_bond_type 
C1            C2   1.404       .  A
C1            C6   1.404       .  A
C1          C349   1.484       .  S
C2            C3   1.403       .  A
C2            H7   1.084       .  S
C3            C4   1.402       .  A
C3          C241   1.471       .  S
C4            C5   1.402       .  A
C4            H8   1.084       .  S
C5            C6   1.404       .  A
C5          C111   1.471       .  S
C6            H9   1.084       .  S
C10          C11   1.405       .  A
C10          C15   1.404       .  A
C10         C346   1.484       .  S
C11          C12   1.403       .  A
C11          H16   1.084       .  S
C12          C13   1.403       .  A
C12         C235   1.473       .  S
C13          C14   1.403       .  A
C13          H17   1.084       .  S
C14          C15   1.403       .  A
C14         C117   1.472       .  S
C15          H18   1.084       .  S
C19          C20   1.403       .  A
C19          C24   1.402       .  A
C19         C339   1.477       .  S
C20          C21   1.405       .  A
C20          H25   1.084       .  S
C21          C22   1.403       .  A
C21         C264   1.473       .  S
C22          C23   1.403       .  A
C22          H26   1.084       .  S
C23          C24   1.404       .  A
C23         C173   1.472       .  S
C24          H27   1.084       .  S
C28          C29   1.402       .  A
C28          C33   1.403       .  A
C28         C336   1.477       .  S
C29          C30   1.403       .  A
C29          H34   1.084       .  S
C30          C31   1.404       .  A
C30         C179   1.472       .  S
C31          C32   1.403       .  A
C31          H35   1.084       .  S
C32          C33   1.405       .  A
C32         C258   1.473       .  S
C33          H36   1.084       .  S
C37          C38   1.404       .  A
C37          C42   1.405       .  A
C37         C329   1.484       .  S
C38          C39   1.405       .  A
C38          H43   1.084       .  S
C39          C40   1.401       .  A
C39         C196   1.471       .  S
C40          C41   1.402       .  A
C40          H44   1.084       .  S
C41          C42   1.403       .  A
C41         C140   1.472       .  S
C42          H45   1.084       .  S
C46          C47   1.404       .  A
C46          C51   1.404       .  A
C46         C326   1.484       .  S
C47          C48   1.405       .  A
C47          H52   1.084       .  S
C48          C49   1.402       .  A
C48         C202   1.471       .  S
C49          C50   1.402       .  A
C49          H53   1.084       .  S
C50          C51   1.403       .  A
C50         C134   1.471       .  S
C51          H54   1.084       .  S
C55          C56   1.402       .  A
C55          C60   1.402       .  A
C55         C316   1.477       .  S
C56          C57   1.401       .  A
C56          H61   1.084       .  S
C57          C58   1.403       .  A
C57         C193   1.470       .  S
C58          C59   1.404       .  A
C58          H62   1.084       .  S
C59          C60   1.403       .  A
C59         C244   1.471       .  S
C60          H63   1.084       .  S
C64          C65   1.402       .  A
C64          C69   1.402       .  A
C64         C319   1.477       .  S
C65          C66   1.403       .  A
C65          H70   1.084       .  S
C66          C67   1.403       .  A
C66         C238   1.471       .  S
C67          C68   1.403       .  A
C67          H71   1.084       .  S
C68          C69   1.401       .  A
C68         C199   1.470       .  S
C69          H72   1.084       .  S
C73          C74   1.403       .  A
C73          C78   1.406       .  A
C73         C306   1.486       .  S
C74          C75   1.402       .  A
C74          H79   1.083       .  S
C75          C76   1.403       .  A
C75         C120   1.472       .  S
C76          C77   1.403       .  A
C76          H80   1.084       .  S
C77          C78   1.402       .  A
C77         C176   1.471       .  S
C78          H81   1.084       .  S
C82          C83   1.404       .  A
C82          C87   1.406       .  A
C82         C309   1.487       .  S
C83          C84   1.402       .  A
C83          H88   1.083       .  S
C84          C85   1.403       .  A
C84         C182   1.471       .  S
C85          C86   1.403       .  A
C85          H89   1.084       .  S
C86          C87   1.402       .  A
C86         C114   1.474       .  S
C87          H90   1.084       .  S
C91          C92   1.401       .  A
C91          C96   1.401       .  A
C91         C296   1.475       .  S
C92          C93   1.403       .  A
C92          H97   1.084       .  S
C93          C94   1.404       .  A
C93         C255   1.473       .  S
C94          C95   1.405       .  A
C94          H98   1.084       .  S
C95          C96   1.405       .  A
C95         C137   1.474       .  S
C96          H99   1.084       .  S
C100        C101   1.401       .  A
C100        C105   1.402       .  A
C100        C299   1.475       .  S
C101        C102   1.402       .  A
C101        H106   1.084       .  S
C102        C103   1.405       .  A
C102        C261   1.473       .  S
C103        C104   1.406       .  A
C103        H107   1.084       .  S
C104        C105   1.405       .  A
C104        C131   1.475       .  S
C105        H108   1.084       .  S
O109       Zr121   2.442       .  S
O109        C111   1.288       .  A
O110       Zr147   2.423       .  S
O110        C111   1.286       .  A
O112       Zr124   2.445       .  S
O112        C114   1.289       .  A
O113       Zr502   2.419       .  S
O113        C114   1.286       .  A
O115       Zr124   2.443       .  S
O115        C117   1.288       .  A
O116       Zr501   2.423       .  S
O116        C117   1.286       .  A
O118       Zr121   2.437       .  S
O118        C120   1.288       .  A
O119       Zr148   2.422       .  S
O119        C120   1.286       .  A
Zr121       O122   2.434       .  S
Zr121       O123   2.436       .  S
Zr121       O127   2.374       .  S
Zr121       O128   2.371       .  S
Zr121       O151   2.372       .  S
Zr121       O153   2.367       .  S
O122        H165   0.990       .  S
O123        H164   0.990       .  S
O123        H168   0.990       .  S
Zr124       O125   2.435       .  S
Zr124       O126   2.435       .  S
Zr124       O152   2.368       .  S
Zr124       O154   2.372       .  S
Zr124       O482   2.371       .  S
Zr124       O481   2.375       .  S
O125        H166   0.990       .  S
O125        H169   0.990       .  S
O126        H159   0.990       .  S
O127       Zr147   2.380       .  S
O127       Zr478   2.375   1_554  S
O128       Zr148   2.384       .  S
O128       Zr478   2.371   1_554  S
O128        H155   0.966       .  S
O129       Zr141   2.443       .  S
O129        C131   1.288       .  A
O130       Zr148   2.425       .  S
O130        C131   1.287       .  A
O132       Zr144   2.441       .  S
O132        C134   1.288       .  A
O133       Zr501   2.419       .  S
O133        C134   1.286       .  A
O135       Zr144   2.439       .  S
O135        C137   1.287       .  A
O136       Zr502   2.426       .  S
O136        C137   1.287       .  A
O138       Zr141   2.442       .  S
O138        C140   1.288       .  A
O139       Zr147   2.419       .  S
O139        C140   1.286       .  A
Zr141       O142   2.435       .  S
Zr141       O143   2.434       .  S
Zr141       O149   2.373       .  S
Zr141       O150   2.375       .  S
Zr141       O153   2.367       .  S
Zr141       O151   2.370       .  S
O142        H162   0.990       .  S
O142        H167   0.990       .  S
O143        H163   0.990       .  S
Zr144       O145   2.434       .  S
Zr144       O146   2.435       .  S
Zr144       O154   2.371       .  S
Zr144       O152   2.366       .  S
Zr144       O504   2.375       .  S
Zr144       O503   2.374       .  S
O145        H161   0.990       .  S
O146        H160   0.990       .  S
O146        H170   0.990       .  S
Zr147       O470   2.423   1_554  S
Zr147       O487   2.419   1_554  S
Zr147       O150   2.381       .  S
Zr147       O153   2.382       .  S
Zr147       O506   2.382   1_554  S
Zr148       O467   2.419   1_554  S
Zr148       O490   2.426   1_554  S
Zr148       O149   2.383       .  S
Zr148       O151   2.380       .  S
Zr148       O508   2.381   1_554  S
O149       Zr498   2.374   1_554  S
O149        H157   0.966       .  S
O150       Zr498   2.375   1_554  S
O152       Zr501   2.382       .  S
O152        H156   0.966       .  S
O153        H158   0.966       .  S
O154       Zr502   2.381       .  S
O171      Zr1599   2.446   1_455  S
O171        C173   1.289       .  A
O172       Zr563   2.420       .  S
O172        C173   1.286       .  A
O174       Zr186   2.446       .  S
O174        C176   1.289       .  A
O175       Zr210   2.416       .  S
O175        C176   1.285       .  A
O177      Zr1602   2.447   1_455  S
O177        C179   1.289       .  A
O178       Zr209   2.420       .  S
O178        C179   1.286       .  A
O180       Zr183   2.445       .  S
O180        C182   1.289       .  A
O181       Zr564   2.415       .  S
O181        C182   1.284       .  A
Zr183      O1587   2.446       .  S
Zr183       O184   2.434       .  S
Zr183       O185   2.436       .  S
Zr183       O213   2.370       .  S
Zr183      O1959   2.375       .  S
Zr183       O544   2.372       .  S
Zr183      O1631   2.369       .  S
O184       H1643   0.990       .  S
O185        H230   0.990       .  S
O185       H1642   0.990       .  S
Zr186      O1593   2.447       .  S
Zr186       O187   2.435       .  S
Zr186       O188   2.435       .  S
Zr186       O190   2.374       .  S
Zr186       O216   2.372       .  S
Zr186      O1605   2.375       .  S
Zr186      O1630   2.368       .  S
O187        H228   0.990       .  S
O187        H231   0.990       .  S
O188       H1637   0.990       .  S
O189       Zr209   2.384       .  S
O189      Zr1953   2.375   1_454  S
O189      Zr1602   2.375   1_455  S
O190       Zr210   2.385       .  S
O190       Zr537   2.372   1_554  S
O190        H217   0.966       .  S
O191       Zr203   2.438       .  S
O191        C193   1.287       .  A
O192       Zr564   2.418       .  S
O192        C193   1.285       .  A
O194      Zr1622   2.434   1_455  S
O194        C196   1.287       .  A
O195       Zr209   2.428       .  S
O195        C196   1.287       .  A
O197       Zr206   2.438       .  S
O197        C199   1.287       .  A
O198       Zr210   2.417       .  S
O198        C199   1.285       .  A
O200      Zr1619   2.436   1_455  S
O200        C202   1.287       .  A
O201       Zr563   2.427       .  S
O201        C202   1.287       .  A
Zr203      O1616   2.436       .  S
Zr203       O204   2.435       .  S
Zr203       O205   2.434       .  S
Zr203       O213   2.368       .  S
Zr203       O565   2.372       .  S
Zr203      O1982   2.376       .  S
Zr203      O1631   2.366       .  S
O204        H224   0.990       .  S
O204        H229   0.990       .  S
O205        H225   0.990       .  S
Zr206      O1610   2.434       .  S
Zr206       O207   2.434       .  S
Zr206       O208   2.436       .  S
Zr206       O211   2.371       .  S
Zr206       O216   2.368       .  S
Zr206      O1628   2.377       .  S
Zr206      O1630   2.365       .  S
O207       H1639   0.990       .  S
O208        H222   0.990       .  S
O208        H232   0.990       .  S
Zr209       O526   2.420   1_554  S
Zr209       O555   2.427   1_554  S
Zr209       O212   2.379       .  S
Zr209       O214   2.383       .  S
Zr209       O569   2.384   1_554  S
Zr210       O535   2.415   1_554  S
Zr210       O546   2.418   1_554  S
Zr210       O211   2.381       .  S
Zr210       O216   2.380       .  S
Zr210       O567   2.379   1_554  S
O211       Zr557   2.372   1_554  S
O211        H219   0.966       .  S
O212      Zr1973   2.376   1_454  S
O212      Zr1622   2.377   1_455  S
O213       Zr564   2.379       .  S
O214      Zr1602   2.368   1_455  S
O214      Zr1622   2.365   1_455  S
O214        H218   0.966       .  S
O215      Zr1599   2.369   1_455  S
O215      Zr1619   2.366   1_455  S
O215       Zr563   2.384       .  S
O215        H220   0.966       .  S
H221       O1604   0.990   1_455  S
H223       O1623   0.990   1_455  S
H226       O1601   0.990   1_455  S
H227       O1600   0.990   1_455  S
O233       Zr245   2.447       .  S
O233        C235   1.289       .  A
O234       Zr625   2.420       .  S
O234        C235   1.286       .  A
O236       Zr956   2.440   1_545  S
O236        C238   1.288       .  A
O237       Zr272   2.420       .  S
O237        C238   1.286       .  A
O239       Zr248   2.442       .  S
O239        C241   1.288       .  A
O240       Zr271   2.420       .  S
O240        C241   1.286       .  A
O242       Zr953   2.444   1_545  S
O242        C244   1.289       .  A
O243       Zr626   2.417       .  S
O243        C244   1.285       .  A
Zr245       O950   2.444       .  S
Zr245       O246   2.434       .  S
Zr245       O955   2.436       .  S
Zr245       O277   2.369       .  S
Zr245       O605   2.374       .  S
Zr245      O1314   2.373       .  S
Zr245       O983   2.371       .  S
O246        H289   0.990       .  S
O247       Zr953   2.436       .  S
O247        H996   0.990       .  S
O247       H1000   0.990       .  S
Zr248       O944   2.440       .  S
Zr248       O249   2.435       .  S
Zr248       O958   2.435       .  S
Zr248       O251   2.373       .  S
Zr248       O276   2.368       .  S
Zr248       O960   2.373       .  S
Zr248       O986   2.372       .  S
O249        H293   0.990       .  S
O249        H998   0.990       .  S
O250       Zr956   2.435       .  S
O250        H991   0.990       .  S
O251       Zr271   2.382       .  S
O251       Zr599   2.374   1_554  S
O252       Zr272   2.385       .  S
O252      Zr1307   2.373   1_544  S
O252       Zr956   2.373   1_545  S
O252        H279   0.966       .  S
O253       Zr973   2.440   1_545  S
O253        C255   1.288       .  A
O254       Zr626   2.424       .  S
O254        C255   1.286       .  A
O256       Zr268   2.441       .  S
O256        C258   1.288       .  A
O257       Zr271   2.427       .  S
O257        C258   1.287       .  A
O259       Zr976   2.443   1_545  S
O259        C261   1.288       .  A
O260       Zr272   2.422       .  S
O260        C261   1.286       .  A
O262       Zr265   2.439       .  S
O262        C264   1.287       .  A
O263       Zr625   2.427       .  S
O263        C264   1.287       .  A
Zr265       O961   2.440       .  S
Zr265       O266   2.435       .  S
Zr265       O267   2.434       .  S
Zr265       O277   2.367       .  S
Zr265      O1335   2.374       .  S
Zr265       O628   2.376       .  S
Zr265       O983   2.368       .  S
O266        H291   0.990       .  S
O266        H994   0.990       .  S
O267        H995   0.990       .  S
Zr268       O967   2.443       .  S
Zr268       O269   2.433       .  S
Zr268       O270   2.435       .  S
Zr268       O274   2.377       .  S
Zr268       O276   2.366       .  S
Zr268       O981   2.374       .  S
Zr268       O986   2.368       .  S
O269        H285   0.990       .  S
O270        H294   0.990       .  S
O270        H992   0.990       .  S
Zr271       O588   2.420   1_554  S
Zr271       O617   2.427   1_554  S
Zr271       O274   2.379       .  S
Zr271       O276   2.382       .  S
Zr271       O631   2.383   1_554  S
Zr272       O597   2.417   1_554  S
Zr272       O608   2.424   1_554  S
Zr272       O273   2.382       .  S
Zr272       O278   2.380       .  S
Zr272       O629   2.380   1_554  S
O273      Zr1327   2.374   1_544  S
O273       Zr976   2.374   1_545  S
O273        H281   0.966       .  S
O274       Zr619   2.376   1_554  S
O275       Zr953   2.371   1_545  S
O275       Zr973   2.368   1_545  S
O275       Zr626   2.380       .  S
O276        H280   0.966       .  S
O277       Zr625   2.383       .  S
O277        H282   0.966       .  S
O278       Zr956   2.372   1_545  S
O278       Zr976   2.368   1_545  S
H283        O958   0.990       .  S
H284        O978   0.990   1_545  S
H286        O974   0.990   1_545  S
H287        O975   0.990   1_545  S
H288        O955   0.990       .  S
H290        O957   0.990   1_545  S
H292        O955   0.990       .  S
C295        C296   1.401       .  A
C295        C300   1.395       .  A
C295        H302   1.084       .  S
C296        C297   1.409       .  A
C297        C298   1.403       .  A
C297       Br304   1.918       .  S
C298        C299   1.404       .  A
C298        H303   1.083       .  S
C299        C300   1.408       .  A
C300       Br301   1.921       .  S
C305        C306   1.406       .  A
C305        C310   1.399       .  A
C305        H312   1.083       .  S
C306        C307   1.415       .  A
C307        C308   1.394       .  A
C307       Br314   1.925       .  S
C308        C309   1.404       .  A
C308        H313   1.084       .  S
C309        C310   1.414       .  A
C310       Br311   1.922       .  S
C315        C316   1.404       .  A
C315        C320   1.400       .  A
C315        H322   1.083       .  S
C316        C317   1.411       .  A
C317        C318   1.394       .  A
C317       Br324   1.923       .  S
C318        C319   1.402       .  A
C318        H323   1.084       .  S
C319        C320   1.410       .  A
C320       Br321   1.919       .  S
C325        C326   1.406       .  A
C325        C330   1.402       .  A
C325        H332   1.083       .  S
C326        C327   1.412       .  A
C327        C328   1.396       .  A
C327       Br334   1.923       .  S
C328        C329   1.404       .  A
C328        H333   1.084       .  S
C329        C330   1.412       .  A
C330       Br331   1.920       .  S
C335        C336   1.404       .  A
C335        C340   1.402       .  A
C335        H342   1.083       .  S
C336        C337   1.409       .  A
C337        C338   1.398       .  A
C337       Br344   1.921       .  S
C338        C339   1.402       .  A
C338        H343   1.084       .  S
C339        C340   1.408       .  A
C340       Br341   1.918       .  S
C345        C346   1.404       .  A
C345        C350   1.397       .  A
C345        H352   1.084       .  S
C346        C347   1.412       .  A
C347        C348   1.401       .  A
C347       Br354   1.920       .  S
C348        C349   1.405       .  A
C348        H353   1.083       .  S
C349        C350   1.412       .  A
C350       Br351   1.922       .  S
C355        C356   1.404       .  A
C355        C360   1.404       .  A
C355        C703   1.484       .  S
C356        C357   1.403       .  A
C356        H361   1.084       .  S
C357        C358   1.402       .  A
C357        C595   1.471       .  S
C358        C359   1.402       .  A
C358        H362   1.084       .  S
C359        C360   1.404       .  A
C359        C465   1.471       .  S
C360        H363   1.084       .  S
C364        C365   1.405       .  A
C364        C369   1.404       .  A
C364        C700   1.484       .  S
C365        C366   1.403       .  A
C365        H370   1.084       .  S
C366        C367   1.403       .  A
C366        C589   1.473       .  S
C367        C368   1.403       .  A
C367        H371   1.084       .  S
C368        C369   1.403       .  A
C368        C471   1.472       .  S
C369        H372   1.084       .  S
C373        C374   1.403       .  A
C373        C378   1.402       .  A
C373        C693   1.477       .  S
C374        C375   1.405       .  A
C374        H379   1.084       .  S
C375        C376   1.403       .  A
C375        C618   1.473       .  S
C376        C377   1.403       .  A
C376        H380   1.084       .  S
C377        C378   1.404       .  A
C377        C527   1.472       .  S
C378        H381   1.084       .  S
C382        C383   1.402       .  A
C382        C387   1.403       .  A
C382        C690   1.477       .  S
C383        C384   1.403       .  A
C383        H388   1.084       .  S
C384        C385   1.404       .  A
C384        C533   1.472       .  S
C385        C386   1.403       .  A
C385        H389   1.084       .  S
C386        C387   1.405       .  A
C386        C612   1.473       .  S
C387        H390   1.084       .  S
C391        C392   1.404       .  A
C391        C396   1.405       .  A
C391        C683   1.484       .  S
C392        C393   1.405       .  A
C392        H397   1.084       .  S
C393        C394   1.401       .  A
C393        C550   1.471       .  S
C394        C395   1.402       .  A
C394        H398   1.084       .  S
C395        C396   1.403       .  A
C395        C494   1.472       .  S
C396        H399   1.084       .  S
C400        C401   1.404       .  A
C400        C405   1.404       .  A
C400        C680   1.484       .  S
C401        C402   1.405       .  A
C401        H406   1.084       .  S
C402        C403   1.402       .  A
C402        C556   1.471       .  S
C403        C404   1.402       .  A
C403        H407   1.084       .  S
C404        C405   1.403       .  A
C404        C488   1.471       .  S
C405        H408   1.084       .  S
C409        C410   1.402       .  A
C409        C414   1.402       .  A
C409        C670   1.477       .  S
C410        C411   1.401       .  A
C410        H415   1.084       .  S
C411        C412   1.403       .  A
C411        C547   1.470       .  S
C412        C413   1.404       .  A
C412        H416   1.084       .  S
C413        C414   1.403       .  A
C413        C598   1.471       .  S
C414        H417   1.084       .  S
C418        C419   1.402       .  A
C418        C423   1.402       .  A
C418        C673   1.477       .  S
C419        C420   1.403       .  A
C419        H424   1.084       .  S
C420        C421   1.403       .  A
C420        C592   1.471       .  S
C421        C422   1.403       .  A
C421        H425   1.084       .  S
C422        C423   1.401       .  A
C422        C553   1.470       .  S
C423        H426   1.084       .  S
C427        C428   1.403       .  A
C427        C432   1.406       .  A
C427        C660   1.486       .  S
C428        C429   1.402       .  A
C428        H433   1.083       .  S
C429        C430   1.403       .  A
C429        C474   1.472       .  S
C430        C431   1.403       .  A
C430        H434   1.084       .  S
C431        C432   1.402       .  A
C431        C530   1.471       .  S
C432        H435   1.084       .  S
C436        C437   1.404       .  A
C436        C441   1.406       .  A
C436        C663   1.487       .  S
C437        C438   1.402       .  A
C437        H442   1.083       .  S
C438        C439   1.403       .  A
C438        C536   1.471       .  S
C439        C440   1.403       .  A
C439        H443   1.084       .  S
C440        C441   1.402       .  A
C440        C468   1.474       .  S
C441        H444   1.084       .  S
C445        C446   1.401       .  A
C445        C450   1.401       .  A
C445        C650   1.475       .  S
C446        C447   1.403       .  A
C446        H451   1.084       .  S
C447        C448   1.404       .  A
C447        C609   1.473       .  S
C448        C449   1.405       .  A
C448        H452   1.084       .  S
C449        C450   1.405       .  A
C449        C491   1.474       .  S
C450        H453   1.084       .  S
C454        C455   1.401       .  A
C454        C459   1.402       .  A
C454        C653   1.475       .  S
C455        C456   1.402       .  A
C455        H460   1.084       .  S
C456        C457   1.405       .  A
C456        C615   1.473       .  S
C457        C458   1.406       .  A
C457        H461   1.084       .  S
C458        C459   1.405       .  A
C458        C485   1.475       .  S
C459        H462   1.084       .  S
O463       Zr475   2.442       .  S
O463        C465   1.288       .  A
O464       Zr501   2.423       .  S
O464        C465   1.286       .  A
O466       Zr478   2.445       .  S
O466        C468   1.289       .  A
O467        C468   1.286       .  A
O469       Zr478   2.443       .  S
O469        C471   1.288       .  A
O470        C471   1.286       .  A
O472       Zr475   2.437       .  S
O472        C474   1.288       .  A
O473       Zr502   2.422       .  S
O473        C474   1.286       .  A
Zr475       O476   2.434       .  S
Zr475       O477   2.436       .  S
Zr475       O481   2.374       .  S
Zr475       O482   2.371       .  S
Zr475       O505   2.372       .  S
Zr475       O507   2.367       .  S
O476        H519   0.990       .  S
O477        H518   0.990       .  S
O477        H522   0.990       .  S
Zr478       O479   2.435       .  S
Zr478       O480   2.435       .  S
Zr478       O506   2.368       .  S
Zr478       O508   2.372       .  S
O479        H520   0.990       .  S
O479        H523   0.990       .  S
O480        H513   0.990       .  S
O481       Zr501   2.380       .  S
O482       Zr502   2.384       .  S
O482        H509   0.966       .  S
O483       Zr495   2.443       .  S
O483        C485   1.288       .  A
O484       Zr502   2.425       .  S
O484        C485   1.287       .  A
O486       Zr498   2.441       .  S
O486        C488   1.288       .  A
O487        C488   1.286       .  A
O489       Zr498   2.439       .  S
O489        C491   1.287       .  A
O490        C491   1.287       .  A
O492       Zr495   2.442       .  S
O492        C494   1.288       .  A
O493       Zr501   2.419       .  S
O493        C494   1.286       .  A
Zr495       O496   2.435       .  S
Zr495       O497   2.434       .  S
Zr495       O503   2.373       .  S
Zr495       O504   2.375       .  S
Zr495       O507   2.367       .  S
Zr495       O505   2.370       .  S
O496        H516   0.990       .  S
O496        H521   0.990       .  S
O497        H517   0.990       .  S
Zr498       O499   2.434       .  S
Zr498       O500   2.435       .  S
Zr498       O508   2.371       .  S
Zr498       O506   2.366       .  S
O499        H515   0.990       .  S
O500        H514   0.990       .  S
O500        H524   0.990       .  S
Zr501       O504   2.381       .  S
Zr501       O507   2.382       .  S
Zr502       O503   2.383       .  S
Zr502       O505   2.380       .  S
O503        H511   0.966       .  S
O506        H510   0.966       .  S
O507        H512   0.966       .  S
O525      Zr1953   2.446   1_455  S
O525        C527   1.289       .  A
O526        C527   1.286       .  A
O528       Zr540   2.446       .  S
O528        C530   1.289       .  A
O529       Zr564   2.416       .  S
O529        C530   1.285       .  A
O531      Zr1956   2.447   1_455  S
O531        C533   1.289       .  A
O532       Zr563   2.420       .  S
O532        C533   1.286       .  A
O534       Zr537   2.445       .  S
O534        C536   1.289       .  A
O535        C536   1.284       .  A
Zr537      O1941   2.446       .  S
Zr537       O538   2.434       .  S
Zr537       O539   2.436       .  S
Zr537      O1605   2.375   1_556  S
Zr537       O567   2.370       .  S
Zr537      O1985   2.369       .  S
O538       H1997   0.990       .  S
O539       H1996   0.990       .  S
O539        H584   0.990       .  S
Zr540      O1947   2.447       .  S
Zr540       O541   2.435       .  S
Zr540       O542   2.435       .  S
Zr540       O544   2.374       .  S
Zr540      O1959   2.375       .  S
Zr540      O1984   2.368       .  S
Zr540       O570   2.372       .  S
O541        H582   0.990       .  S
O541        H585   0.990       .  S
O542       H1991   0.990       .  S
O543      Zr1599   2.375   1_455  S
O543      Zr1956   2.375   1_455  S
O543       Zr563   2.384       .  S
O544       Zr564   2.385       .  S
O544        H571   0.966       .  S
O545       Zr557   2.438       .  S
O545        C547   1.287       .  A
O546        C547   1.285       .  A
O548      Zr1976   2.434   1_455  S
O548        C550   1.287       .  A
O549       Zr563   2.428       .  S
O549        C550   1.287       .  A
O551       Zr560   2.438       .  S
O551        C553   1.287       .  A
O552       Zr564   2.417       .  S
O552        C553   1.285       .  A
O554      Zr1973   2.436   1_455  S
O554        C556   1.287       .  A
O555        C556   1.287       .  A
Zr557      O1970   2.436       .  S
Zr557       O558   2.435       .  S
Zr557       O559   2.434       .  S
Zr557      O1628   2.376   1_556  S
Zr557      O1985   2.366       .  S
Zr557       O567   2.368       .  S
O558        H578   0.990       .  S
O558        H583   0.990       .  S
O559        H579   0.990       .  S
Zr560      O1964   2.434       .  S
Zr560       O561   2.434       .  S
Zr560       O562   2.436       .  S
Zr560      O1982   2.377       .  S
Zr560       O565   2.371       .  S
Zr560       O570   2.368       .  S
Zr560      O1984   2.365       .  S
O561       H1993   0.990       .  S
O562        H576   0.990       .  S
O562        H586   0.990       .  S
Zr563       O566   2.379       .  S
Zr563       O568   2.383       .  S
Zr564       O565   2.381       .  S
Zr564       O570   2.380       .  S
O565        H573   0.966       .  S
O566      Zr1619   2.376   1_455  S
O566      Zr1976   2.377   1_455  S
O568      Zr1956   2.368   1_455  S
O568      Zr1976   2.365   1_455  S
O568        H572   0.966       .  S
O569      Zr1953   2.369   1_455  S
O569      Zr1973   2.366   1_455  S
O569        H574   0.966       .  S
H575       O1958   0.990   1_455  S
H577       O1977   0.990   1_455  S
H580       O1955   0.990   1_455  S
H581       O1954   0.990   1_455  S
O587       Zr599   2.447       .  S
O587        C589   1.289       .  A
O588        C589   1.286       .  A
O590      Zr1310   2.440   1_545  S
O590        C592   1.288       .  A
O591       Zr626   2.420       .  S
O591        C592   1.286       .  A
O593       Zr602   2.442       .  S
O593        C595   1.288       .  A
O594       Zr625   2.420       .  S
O594        C595   1.286       .  A
O596      Zr1307   2.444   1_545  S
O596        C598   1.289       .  A
O597        C598   1.285       .  A
Zr599      O1304   2.444       .  S
Zr599       O600   2.434       .  S
Zr599      O1309   2.436       .  S
Zr599       O960   2.373   1_556  S
Zr599      O1337   2.371       .  S
Zr599       O631   2.369       .  S
O600        H643   0.990       .  S
O601      Zr1307   2.436       .  S
O601       H1350   0.990       .  S
O601       H1354   0.990       .  S
Zr602      O1298   2.440       .  S
Zr602       O603   2.435       .  S
Zr602      O1312   2.435       .  S
Zr602      O1314   2.373       .  S
Zr602       O605   2.373       .  S
Zr602       O630   2.368       .  S
Zr602      O1340   2.372       .  S
O603       H1352   0.990       .  S
O603        H647   0.990       .  S
O604      Zr1310   2.435       .  S
O604       H1345   0.990       .  S
O605       Zr625   2.382       .  S
O606       Zr953   2.373   1_545  S
O606      Zr1310   2.373   1_545  S
O606       Zr626   2.385       .  S
O606        H633   0.966       .  S
O607      Zr1327   2.440   1_545  S
O607        C609   1.288       .  A
O608        C609   1.286       .  A
O610       Zr622   2.441       .  S
O610        C612   1.288       .  A
O611       Zr625   2.427       .  S
O611        C612   1.287       .  A
O613      Zr1330   2.443   1_545  S
O613        C615   1.288       .  A
O614       Zr626   2.422       .  S
O614        C615   1.286       .  A
O616       Zr619   2.439       .  S
O616        C618   1.287       .  A
O617        C618   1.287       .  A
Zr619      O1315   2.440       .  S
Zr619       O620   2.435       .  S
Zr619       O621   2.434       .  S
Zr619       O981   2.374   1_556  S
Zr619       O631   2.367       .  S
Zr619      O1337   2.368       .  S
O620       H1348   0.990       .  S
O620        H645   0.990       .  S
O621       H1349   0.990       .  S
Zr622      O1321   2.443       .  S
Zr622       O623   2.433       .  S
Zr622       O624   2.435       .  S
Zr622       O628   2.377       .  S
Zr622      O1335   2.374       .  S
Zr622      O1340   2.368       .  S
Zr622       O630   2.366       .  S
O623        H639   0.990       .  S
O624       H1346   0.990       .  S
O624        H648   0.990       .  S
Zr625       O628   2.379       .  S
Zr625       O630   2.382       .  S
Zr626       O627   2.382       .  S
Zr626       O632   2.380       .  S
O627       Zr973   2.374   1_545  S
O627      Zr1330   2.374   1_545  S
O627        H635   0.966       .  S
O629      Zr1307   2.371   1_545  S
O629      Zr1327   2.368   1_545  S
O630        H634   0.966       .  S
O631        H636   0.966       .  S
O632      Zr1310   2.372   1_545  S
O632      Zr1330   2.368   1_545  S
H637       O1312   0.990       .  S
H638       O1332   0.990   1_545  S
H640       O1328   0.990   1_545  S
H641       O1329   0.990   1_545  S
H642       O1309   0.990       .  S
H644       O1311   0.990   1_545  S
H646       O1309   0.990       .  S
C649        C650   1.401       .  A
C649        C654   1.395       .  A
C649        H656   1.084       .  S
C650        C651   1.409       .  A
C651        C652   1.403       .  A
C651       Br658   1.918       .  S
C652        C653   1.404       .  A
C652        H657   1.083       .  S
C653        C654   1.408       .  A
C654       Br655   1.921       .  S
C659        C660   1.406       .  A
C659        C664   1.399       .  A
C659        H666   1.083       .  S
C660        C661   1.415       .  A
C661        C662   1.394       .  A
C661       Br668   1.925       .  S
C662        C663   1.404       .  A
C662        H667   1.084       .  S
C663        C664   1.414       .  A
C664       Br665   1.922       .  S
C669        C670   1.404       .  A
C669        C674   1.400       .  A
C669        H676   1.083       .  S
C670        C671   1.411       .  A
C671        C672   1.394       .  A
C671       Br678   1.923       .  S
C672        C673   1.402       .  A
C672        H677   1.084       .  S
C673        C674   1.410       .  A
C674       Br675   1.919       .  S
C679        C680   1.406       .  A
C679        C684   1.402       .  A
C679        H686   1.083       .  S
C680        C681   1.412       .  A
C681        C682   1.396       .  A
C681       Br688   1.923       .  S
C682        C683   1.404       .  A
C682        H687   1.084       .  S
C683        C684   1.412       .  A
C684       Br685   1.920       .  S
C689        C690   1.404       .  A
C689        C694   1.402       .  A
C689        H696   1.083       .  S
C690        C691   1.409       .  A
C691        C692   1.398       .  A
C691       Br698   1.921       .  S
C692        C693   1.402       .  A
C692        H697   1.084       .  S
C693        C694   1.408       .  A
C694       Br695   1.918       .  S
C699        C700   1.404       .  A
C699        C704   1.397       .  A
C699        H706   1.084       .  S
C700        C701   1.412       .  A
C701        C702   1.401       .  A
C701       Br708   1.920       .  S
C702        C703   1.405       .  A
C702        H707   1.083       .  S
C703        C704   1.412       .  A
C704       Br705   1.922       .  S
C709        C710   1.404       .  A
C709        C714   1.404       .  A
C709       C1057   1.484       .  S
C710        C711   1.403       .  A
C710        H715   1.084       .  S
C711        C712   1.402       .  A
C711        C949   1.471       .  S
C712        C713   1.402       .  A
C712        H716   1.084       .  S
C713        C714   1.404       .  A
C713        C819   1.471       .  S
C714        H717   1.084       .  S
C718        C719   1.405       .  A
C718        C723   1.404       .  A
C718       C1054   1.484       .  S
C719        C720   1.403       .  A
C719        H724   1.084       .  S
C720        C721   1.403       .  A
C720        C943   1.473       .  S
C721        C722   1.403       .  A
C721        H725   1.084       .  S
C722        C723   1.403       .  A
C722        C825   1.472       .  S
C723        H726   1.084       .  S
C727        C728   1.403       .  A
C727        C732   1.402       .  A
C727       C1047   1.477       .  S
C728        C729   1.405       .  A
C728        H733   1.084       .  S
C729        C730   1.403       .  A
C729        C972   1.473       .  S
C730        C731   1.403       .  A
C730        H734   1.084       .  S
C731        C732   1.404       .  A
C731        C881   1.472       .  S
C732        H735   1.084       .  S
C736        C737   1.402       .  A
C736        C741   1.403       .  A
C736       C1044   1.477       .  S
C737        C738   1.403       .  A
C737        H742   1.084       .  S
C738        C739   1.404       .  A
C738        C887   1.472       .  S
C739        C740   1.403       .  A
C739        H743   1.084       .  S
C740        C741   1.405       .  A
C740        C966   1.473       .  S
C741        H744   1.084       .  S
C745        C746   1.404       .  A
C745        C750   1.405       .  A
C745       C1037   1.484       .  S
C746        C747   1.405       .  A
C746        H751   1.084       .  S
C747        C748   1.401       .  A
C747        C904   1.471       .  S
C748        C749   1.402       .  A
C748        H752   1.084       .  S
C749        C750   1.403       .  A
C749        C848   1.472       .  S
C750        H753   1.084       .  S
C754        C755   1.404       .  A
C754        C759   1.404       .  A
C754       C1034   1.484       .  S
C755        C756   1.405       .  A
C755        H760   1.084       .  S
C756        C757   1.402       .  A
C756        C910   1.471       .  S
C757        C758   1.402       .  A
C757        H761   1.084       .  S
C758        C759   1.403       .  A
C758        C842   1.471       .  S
C759        H762   1.084       .  S
C763        C764   1.402       .  A
C763        C768   1.402       .  A
C763       C1024   1.477       .  S
C764        C765   1.401       .  A
C764        H769   1.084       .  S
C765        C766   1.403       .  A
C765        C901   1.470       .  S
C766        C767   1.404       .  A
C766        H770   1.084       .  S
C767        C768   1.403       .  A
C767        C952   1.471       .  S
C768        H771   1.084       .  S
C772        C773   1.402       .  A
C772        C777   1.402       .  A
C772       C1027   1.477       .  S
C773        C774   1.403       .  A
C773        H778   1.084       .  S
C774        C775   1.403       .  A
C774        C946   1.471       .  S
C775        C776   1.403       .  A
C775        H779   1.084       .  S
C776        C777   1.401       .  A
C776        C907   1.470       .  S
C777        H780   1.084       .  S
C781        C782   1.403       .  A
C781        C786   1.406       .  A
C781       C1014   1.486       .  S
C782        C783   1.402       .  A
C782        H787   1.083       .  S
C783        C784   1.403       .  A
C783        C828   1.472       .  S
C784        C785   1.403       .  A
C784        H788   1.084       .  S
C785        C786   1.402       .  A
C785        C884   1.471       .  S
C786        H789   1.084       .  S
C790        C791   1.404       .  A
C790        C795   1.406       .  A
C790       C1017   1.487       .  S
C791        C792   1.402       .  A
C791        H796   1.083       .  S
C792        C793   1.403       .  A
C792        C890   1.471       .  S
C793        C794   1.403       .  A
C793        H797   1.084       .  S
C794        C795   1.402       .  A
C794        C822   1.474       .  S
C795        H798   1.084       .  S
C799        C800   1.401       .  A
C799        C804   1.401       .  A
C799       C1004   1.475       .  S
C800        C801   1.403       .  A
C800        H805   1.084       .  S
C801        C802   1.404       .  A
C801        C963   1.473       .  S
C802        C803   1.405       .  A
C802        H806   1.084       .  S
C803        C804   1.405       .  A
C803        C845   1.474       .  S
C804        H807   1.084       .  S
C808        C809   1.401       .  A
C808        C813   1.402       .  A
C808       C1007   1.475       .  S
C809        C810   1.402       .  A
C809        H814   1.084       .  S
C810        C811   1.405       .  A
C810        C969   1.473       .  S
C811        C812   1.406       .  A
C811        H815   1.084       .  S
C812        C813   1.405       .  A
C812        C839   1.475       .  S
C813        H816   1.084       .  S
O817       Zr829   2.442       .  S
O817        C819   1.288       .  A
O818       Zr855   2.423       .  S
O818        C819   1.286       .  A
O820       Zr832   2.445       .  S
O820        C822   1.289       .  A
O821      Zr1210   2.419       .  S
O821        C822   1.286       .  A
O823       Zr832   2.443       .  S
O823        C825   1.288       .  A
O824      Zr1209   2.423       .  S
O824        C825   1.286       .  A
O826       Zr829   2.437       .  S
O826        C828   1.288       .  A
O827       Zr856   2.422       .  S
O827        C828   1.286       .  A
Zr829       O830   2.434       .  S
Zr829       O831   2.436       .  S
Zr829       O835   2.374       .  S
Zr829       O836   2.371       .  S
Zr829       O859   2.372       .  S
Zr829       O861   2.367       .  S
O830        H873   0.990       .  S
O831        H872   0.990       .  S
O831        H876   0.990       .  S
Zr832       O833   2.435       .  S
Zr832       O834   2.435       .  S
Zr832      O1190   2.371       .  S
Zr832      O1189   2.375       .  S
Zr832       O860   2.368       .  S
Zr832       O862   2.372       .  S
O833        H874   0.990       .  S
O833        H877   0.990       .  S
O834        H867   0.990       .  S
O835      Zr1186   2.375   1_554  S
O835       Zr855   2.380       .  S
O836      Zr1186   2.371   1_554  S
O836       Zr856   2.384       .  S
O836        H863   0.966       .  S
O837       Zr849   2.443       .  S
O837        C839   1.288       .  A
O838       Zr856   2.425       .  S
O838        C839   1.287       .  A
O840       Zr852   2.441       .  S
O840        C842   1.288       .  A
O841      Zr1209   2.419       .  S
O841        C842   1.286       .  A
O843       Zr852   2.439       .  S
O843        C845   1.287       .  A
O844      Zr1210   2.426       .  S
O844        C845   1.287       .  A
O846       Zr849   2.442       .  S
O846        C848   1.288       .  A
O847       Zr855   2.419       .  S
O847        C848   1.286       .  A
Zr849       O850   2.435       .  S
Zr849       O851   2.434       .  S
Zr849       O857   2.373       .  S
Zr849       O858   2.375       .  S
Zr849       O861   2.367       .  S
Zr849       O859   2.370       .  S
O850        H870   0.990       .  S
O850        H875   0.990       .  S
O851        H871   0.990       .  S
Zr852       O853   2.434       .  S
Zr852       O854   2.435       .  S
Zr852      O1212   2.375       .  S
Zr852      O1211   2.374       .  S
Zr852       O862   2.371       .  S
Zr852       O860   2.366       .  S
O853        H869   0.990       .  S
O854        H868   0.990       .  S
O854        H878   0.990       .  S
Zr855      O1178   2.423   1_554  S
Zr855      O1195   2.419   1_554  S
Zr855       O858   2.381       .  S
Zr855      O1214   2.382   1_554  S
Zr855       O861   2.382       .  S
Zr856      O1175   2.419   1_554  S
Zr856      O1198   2.426   1_554  S
Zr856       O857   2.383       .  S
Zr856       O859   2.380       .  S
Zr856      O1216   2.381   1_554  S
O857      Zr1206   2.374   1_554  S
O857        H865   0.966       .  S
O858      Zr1206   2.375   1_554  S
O860      Zr1209   2.382       .  S
O860        H864   0.966       .  S
O861        H866   0.966       .  S
O862      Zr1210   2.381       .  S
O879      Zr2307   2.446   1_455  S
O879        C881   1.289       .  A
O880      Zr1271   2.420       .  S
O880        C881   1.286       .  A
O882       Zr894   2.446       .  S
O882        C884   1.289       .  A
O883       Zr918   2.416       .  S
O883        C884   1.285       .  A
O885      Zr2310   2.447   1_455  S
O885        C887   1.289       .  A
O886       Zr917   2.420       .  S
O886        C887   1.286       .  A
O888       Zr891   2.445       .  S
O888        C890   1.289       .  A
O889      Zr1272   2.415       .  S
O889        C890   1.284       .  A
Zr891      O2295   2.446       .  S
Zr891       O892   2.434       .  S
Zr891       O893   2.436       .  S
Zr891      O2667   2.375       .  S
Zr891      O1252   2.372       .  S
Zr891       O921   2.370       .  S
Zr891      O2339   2.369       .  S
O892       H2351   0.990       .  S
O893       H2350   0.990       .  S
O893        H938   0.990       .  S
Zr894      O2301   2.447       .  S
Zr894       O895   2.435       .  S
Zr894       O896   2.435       .  S
Zr894       O898   2.374       .  S
Zr894      O2313   2.375       .  S
Zr894      O2338   2.368       .  S
Zr894       O924   2.372       .  S
O895        H936   0.990       .  S
O895        H939   0.990       .  S
O896       H2345   0.990       .  S
O897      Zr2661   2.375   1_454  S
O897      Zr2310   2.375   1_455  S
O897       Zr917   2.384       .  S
O898      Zr1245   2.372   1_554  S
O898       Zr918   2.385       .  S
O898        H925   0.966       .  S
O899       Zr911   2.438       .  S
O899        C901   1.287       .  A
O900      Zr1272   2.418       .  S
O900        C901   1.285       .  A
O902      Zr2330   2.434   1_455  S
O902        C904   1.287       .  A
O903       Zr917   2.428       .  S
O903        C904   1.287       .  A
O905       Zr914   2.438       .  S
O905        C907   1.287       .  A
O906       Zr918   2.417       .  S
O906        C907   1.285       .  A
O908      Zr2327   2.436   1_455  S
O908        C910   1.287       .  A
O909      Zr1271   2.427       .  S
O909        C910   1.287       .  A
Zr911      O2324   2.436       .  S
Zr911       O912   2.435       .  S
Zr911       O913   2.434       .  S
Zr911      O1273   2.372       .  S
Zr911      O2690   2.376       .  S
Zr911      O2339   2.366       .  S
Zr911       O921   2.368       .  S
O912        H932   0.990       .  S
O912        H937   0.990       .  S
O913        H933   0.990       .  S
Zr914      O2318   2.434       .  S
Zr914       O915   2.434       .  S
Zr914       O916   2.436       .  S
Zr914      O2336   2.377       .  S
Zr914       O919   2.371       .  S
Zr914       O924   2.368       .  S
Zr914      O2338   2.365       .  S
O915       H2347   0.990       .  S
O916        H930   0.990       .  S
O916        H940   0.990       .  S
Zr917      O1234   2.420   1_554  S
Zr917      O1263   2.427   1_554  S
Zr917       O920   2.379       .  S
Zr917       O922   2.383       .  S
Zr917      O1277   2.384   1_554  S
Zr918      O1243   2.415   1_554  S
Zr918      O1254   2.418   1_554  S
Zr918       O919   2.381       .  S
Zr918      O1275   2.379   1_554  S
Zr918       O924   2.380       .  S
O919      Zr1265   2.372   1_554  S
O919        H927   0.966       .  S
O920      Zr2681   2.376   1_454  S
O920      Zr2330   2.377   1_455  S
O921      Zr1272   2.379       .  S
O922      Zr2310   2.368   1_455  S
O922      Zr2330   2.365   1_455  S
O922        H926   0.966       .  S
O923      Zr2307   2.369   1_455  S
O923      Zr2327   2.366   1_455  S
O923      Zr1271   2.384       .  S
O923        H928   0.966       .  S
H929       O2312   0.990   1_455  S
H931       O2331   0.990   1_455  S
H934       O2309   0.990   1_455  S
H935       O2308   0.990   1_455  S
O941       Zr953   2.447       .  S
O941        C943   1.289       .  A
O942      Zr1333   2.420       .  S
O942        C943   1.286       .  A
O944        C946   1.288       .  A
O945       Zr980   2.420       .  S
O945        C946   1.286       .  A
O947       Zr956   2.442       .  S
O947        C949   1.288       .  A
O948       Zr979   2.420       .  S
O948        C949   1.286       .  A
O950        C952   1.289       .  A
O951      Zr1334   2.417       .  S
O951        C952   1.285       .  A
Zr953       O954   2.434       .  S
Zr953      O1313   2.374       .  S
Zr953       O985   2.369       .  S
O954        H997   0.990       .  S
Zr956       O957   2.435       .  S
Zr956       O959   2.373       .  S
Zr956       O984   2.368       .  S
O957       H1001   0.990       .  S
O959      Zr1307   2.374   1_554  S
O959       Zr979   2.382       .  S
O960       Zr980   2.385       .  S
O960        H987   0.966       .  S
O961        C963   1.288       .  A
O962      Zr1334   2.424       .  S
O962        C963   1.286       .  A
O964       Zr976   2.441       .  S
O964        C966   1.288       .  A
O965       Zr979   2.427       .  S
O965        C966   1.287       .  A
O967        C969   1.288       .  A
O968       Zr980   2.422       .  S
O968        C969   1.286       .  A
O970       Zr973   2.439       .  S
O970        C972   1.287       .  A
O971      Zr1333   2.427       .  S
O971        C972   1.287       .  A
Zr973       O974   2.435       .  S
Zr973       O975   2.434       .  S
Zr973      O1336   2.376       .  S
Zr973       O985   2.367       .  S
O974        H999   0.990   1_565  S
Zr976       O977   2.433       .  S
Zr976       O978   2.435       .  S
Zr976       O982   2.377       .  S
Zr976       O984   2.366       .  S
O977        H993   0.990       .  S
O978       H1002   0.990   1_565  S
Zr979      O1296   2.420   1_554  S
Zr979      O1325   2.427   1_554  S
Zr979       O982   2.379       .  S
Zr979       O984   2.382       .  S
Zr979      O1339   2.383   1_554  S
Zr980      O1305   2.417   1_554  S
Zr980      O1316   2.424   1_554  S
Zr980       O981   2.382       .  S
Zr980      O1337   2.380   1_554  S
Zr980       O986   2.380       .  S
O981        H989   0.966       .  S
O982      Zr1327   2.376   1_554  S
O983      Zr1334   2.380       .  S
O984        H988   0.966       .  S
O985      Zr1333   2.383       .  S
O985        H990   0.966       .  S
C1003      C1004   1.401       .  A
C1003      C1008   1.395       .  A
C1003      H1010   1.084       .  S
C1004      C1005   1.409       .  A
C1005      C1006   1.403       .  A
C1005     Br1012   1.918       .  S
C1006      C1007   1.404       .  A
C1006      H1011   1.083       .  S
C1007      C1008   1.408       .  A
C1008     Br1009   1.921       .  S
C1013      C1014   1.406       .  A
C1013      C1018   1.399       .  A
C1013      H1020   1.083       .  S
C1014      C1015   1.415       .  A
C1015      C1016   1.394       .  A
C1015     Br1022   1.925       .  S
C1016      C1017   1.404       .  A
C1016      H1021   1.084       .  S
C1017      C1018   1.414       .  A
C1018     Br1019   1.922       .  S
C1023      C1024   1.404       .  A
C1023      C1028   1.400       .  A
C1023      H1030   1.083       .  S
C1024      C1025   1.411       .  A
C1025      C1026   1.394       .  A
C1025     Br1032   1.923       .  S
C1026      C1027   1.402       .  A
C1026      H1031   1.084       .  S
C1027      C1028   1.410       .  A
C1028     Br1029   1.919       .  S
C1033      C1034   1.406       .  A
C1033      C1038   1.402       .  A
C1033      H1040   1.083       .  S
C1034      C1035   1.412       .  A
C1035      C1036   1.396       .  A
C1035     Br1042   1.923       .  S
C1036      C1037   1.404       .  A
C1036      H1041   1.084       .  S
C1037      C1038   1.412       .  A
C1038     Br1039   1.920       .  S
C1043      C1044   1.404       .  A
C1043      C1048   1.402       .  A
C1043      H1050   1.083       .  S
C1044      C1045   1.409       .  A
C1045      C1046   1.398       .  A
C1045     Br1052   1.921       .  S
C1046      C1047   1.402       .  A
C1046      H1051   1.084       .  S
C1047      C1048   1.408       .  A
C1048     Br1049   1.918       .  S
C1053      C1054   1.404       .  A
C1053      C1058   1.397       .  A
C1053      H1060   1.084       .  S
C1054      C1055   1.412       .  A
C1055      C1056   1.401       .  A
C1055     Br1062   1.920       .  S
C1056      C1057   1.405       .  A
C1056      H1061   1.083       .  S
C1057      C1058   1.412       .  A
C1058     Br1059   1.922       .  S
C1063      C1064   1.404       .  A
C1063      C1068   1.404       .  A
C1063      C1411   1.484       .  S
C1064      C1065   1.403       .  A
C1064      H1069   1.084       .  S
C1065      C1066   1.402       .  A
C1065      C1303   1.471       .  S
C1066      C1067   1.402       .  A
C1066      H1070   1.084       .  S
C1067      C1068   1.404       .  A
C1067      C1173   1.471       .  S
C1068      H1071   1.084       .  S
C1072      C1073   1.405       .  A
C1072      C1077   1.404       .  A
C1072      C1408   1.484       .  S
C1073      C1074   1.403       .  A
C1073      H1078   1.084       .  S
C1074      C1075   1.403       .  A
C1074      C1297   1.473       .  S
C1075      C1076   1.403       .  A
C1075      H1079   1.084       .  S
C1076      C1077   1.403       .  A
C1076      C1179   1.472       .  S
C1077      H1080   1.084       .  S
C1081      C1082   1.403       .  A
C1081      C1086   1.402       .  A
C1081      C1401   1.477       .  S
C1082      C1083   1.405       .  A
C1082      H1087   1.084       .  S
C1083      C1084   1.403       .  A
C1083      C1326   1.473       .  S
C1084      C1085   1.403       .  A
C1084      H1088   1.084       .  S
C1085      C1086   1.404       .  A
C1085      C1235   1.472       .  S
C1086      H1089   1.084       .  S
C1090      C1091   1.402       .  A
C1090      C1095   1.403       .  A
C1090      C1398   1.477       .  S
C1091      C1092   1.403       .  A
C1091      H1096   1.084       .  S
C1092      C1093   1.404       .  A
C1092      C1241   1.472       .  S
C1093      C1094   1.403       .  A
C1093      H1097   1.084       .  S
C1094      C1095   1.405       .  A
C1094      C1320   1.473       .  S
C1095      H1098   1.084       .  S
C1099      C1100   1.404       .  A
C1099      C1104   1.405       .  A
C1099      C1391   1.484       .  S
C1100      C1101   1.405       .  A
C1100      H1105   1.084       .  S
C1101      C1102   1.401       .  A
C1101      C1258   1.471       .  S
C1102      C1103   1.402       .  A
C1102      H1106   1.084       .  S
C1103      C1104   1.403       .  A
C1103      C1202   1.472       .  S
C1104      H1107   1.084       .  S
C1108      C1109   1.404       .  A
C1108      C1113   1.404       .  A
C1108      C1388   1.484       .  S
C1109      C1110   1.405       .  A
C1109      H1114   1.084       .  S
C1110      C1111   1.402       .  A
C1110      C1264   1.471       .  S
C1111      C1112   1.402       .  A
C1111      H1115   1.084       .  S
C1112      C1113   1.403       .  A
C1112      C1196   1.471       .  S
C1113      H1116   1.084       .  S
C1117      C1118   1.402       .  A
C1117      C1122   1.402       .  A
C1117      C1378   1.477       .  S
C1118      C1119   1.401       .  A
C1118      H1123   1.084       .  S
C1119      C1120   1.403       .  A
C1119      C1255   1.470       .  S
C1120      C1121   1.404       .  A
C1120      H1124   1.084       .  S
C1121      C1122   1.403       .  A
C1121      C1306   1.471       .  S
C1122      H1125   1.084       .  S
C1126      C1127   1.402       .  A
C1126      C1131   1.402       .  A
C1126      C1381   1.477       .  S
C1127      C1128   1.403       .  A
C1127      H1132   1.084       .  S
C1128      C1129   1.403       .  A
C1128      C1300   1.471       .  S
C1129      C1130   1.403       .  A
C1129      H1133   1.084       .  S
C1130      C1131   1.401       .  A
C1130      C1261   1.470       .  S
C1131      H1134   1.084       .  S
C1135      C1136   1.403       .  A
C1135      C1140   1.406       .  A
C1135      C1368   1.486       .  S
C1136      C1137   1.402       .  A
C1136      H1141   1.083       .  S
C1137      C1138   1.403       .  A
C1137      C1182   1.472       .  S
C1138      C1139   1.403       .  A
C1138      H1142   1.084       .  S
C1139      C1140   1.402       .  A
C1139      C1238   1.471       .  S
C1140      H1143   1.084       .  S
C1144      C1145   1.404       .  A
C1144      C1149   1.406       .  A
C1144      C1371   1.487       .  S
C1145      C1146   1.402       .  A
C1145      H1150   1.083       .  S
C1146      C1147   1.403       .  A
C1146      C1244   1.471       .  S
C1147      C1148   1.403       .  A
C1147      H1151   1.084       .  S
C1148      C1149   1.402       .  A
C1148      C1176   1.474       .  S
C1149      H1152   1.084       .  S
C1153      C1154   1.401       .  A
C1153      C1158   1.401       .  A
C1153      C1358   1.475       .  S
C1154      C1155   1.403       .  A
C1154      H1159   1.084       .  S
C1155      C1156   1.404       .  A
C1155      C1317   1.473       .  S
C1156      C1157   1.405       .  A
C1156      H1160   1.084       .  S
C1157      C1158   1.405       .  A
C1157      C1199   1.474       .  S
C1158      H1161   1.084       .  S
C1162      C1163   1.401       .  A
C1162      C1167   1.402       .  A
C1162      C1361   1.475       .  S
C1163      C1164   1.402       .  A
C1163      H1168   1.084       .  S
C1164      C1165   1.405       .  A
C1164      C1323   1.473       .  S
C1165      C1166   1.406       .  A
C1165      H1169   1.084       .  S
C1166      C1167   1.405       .  A
C1166      C1193   1.475       .  S
C1167      H1170   1.084       .  S
O1171     Zr1183   2.442       .  S
O1171      C1173   1.288       .  A
O1172     Zr1209   2.423       .  S
O1172      C1173   1.286       .  A
O1174     Zr1186   2.445       .  S
O1174      C1176   1.289       .  A
O1175      C1176   1.286       .  A
O1177     Zr1186   2.443       .  S
O1177      C1179   1.288       .  A
O1178      C1179   1.286       .  A
O1180     Zr1183   2.437       .  S
O1180      C1182   1.288       .  A
O1181     Zr1210   2.422       .  S
O1181      C1182   1.286       .  A
Zr1183     O1184   2.434       .  S
Zr1183     O1185   2.436       .  S
Zr1183     O1189   2.374       .  S
Zr1183     O1190   2.371       .  S
Zr1183     O1213   2.372       .  S
Zr1183     O1215   2.367       .  S
O1184      H1227   0.990       .  S
O1185      H1226   0.990       .  S
O1185      H1230   0.990       .  S
Zr1186     O1187   2.435       .  S
Zr1186     O1188   2.435       .  S
Zr1186     O1214   2.368       .  S
Zr1186     O1216   2.372       .  S
O1187      H1228   0.990       .  S
O1187      H1231   0.990       .  S
O1188      H1221   0.990       .  S
O1189     Zr1209   2.380       .  S
O1190     Zr1210   2.384       .  S
O1190      H1217   0.966       .  S
O1191     Zr1203   2.443       .  S
O1191      C1193   1.288       .  A
O1192     Zr1210   2.425       .  S
O1192      C1193   1.287       .  A
O1194     Zr1206   2.441       .  S
O1194      C1196   1.288       .  A
O1195      C1196   1.286       .  A
O1197     Zr1206   2.439       .  S
O1197      C1199   1.287       .  A
O1198      C1199   1.287       .  A
O1200     Zr1203   2.442       .  S
O1200      C1202   1.288       .  A
O1201     Zr1209   2.419       .  S
O1201      C1202   1.286       .  A
Zr1203     O1204   2.435       .  S
Zr1203     O1205   2.434       .  S
Zr1203     O1211   2.373       .  S
Zr1203     O1212   2.375       .  S
Zr1203     O1215   2.367       .  S
Zr1203     O1213   2.370       .  S
O1204      H1224   0.990       .  S
O1204      H1229   0.990       .  S
O1205      H1225   0.990       .  S
Zr1206     O1207   2.434       .  S
Zr1206     O1208   2.435       .  S
Zr1206     O1216   2.371       .  S
Zr1206     O1214   2.366       .  S
O1207      H1223   0.990       .  S
O1208      H1222   0.990       .  S
O1208      H1232   0.990       .  S
Zr1209     O1212   2.381       .  S
Zr1209     O1215   2.382       .  S
Zr1210     O1211   2.383       .  S
Zr1210     O1213   2.380       .  S
O1211      H1219   0.966       .  S
O1214      H1218   0.966       .  S
O1215      H1220   0.966       .  S
O1233     Zr2661   2.446   1_455  S
O1233      C1235   1.289       .  A
O1234      C1235   1.286       .  A
O1236     Zr1248   2.446       .  S
O1236      C1238   1.289       .  A
O1237     Zr1272   2.416       .  S
O1237      C1238   1.285       .  A
O1239     Zr2664   2.447   1_455  S
O1239      C1241   1.289       .  A
O1240     Zr1271   2.420       .  S
O1240      C1241   1.286       .  A
O1242     Zr1245   2.445       .  S
O1242      C1244   1.289       .  A
O1243      C1244   1.284       .  A
Zr1245     O2649   2.446       .  S
Zr1245     O1246   2.434       .  S
Zr1245     O1247   2.436       .  S
Zr1245     O2313   2.375   1_556  S
Zr1245     O1275   2.370       .  S
Zr1245     O2693   2.369       .  S
O1246      H2705   0.990       .  S
O1247      H2704   0.990       .  S
O1247      H1292   0.990       .  S
Zr1248     O2655   2.447       .  S
Zr1248     O1249   2.435       .  S
Zr1248     O1250   2.435       .  S
Zr1248     O1252   2.374       .  S
Zr1248     O2667   2.375       .  S
Zr1248     O2692   2.368       .  S
Zr1248     O1278   2.372       .  S
O1249      H1290   0.990       .  S
O1249      H1293   0.990       .  S
O1250      H2699   0.990       .  S
O1251     Zr2307   2.375   1_455  S
O1251     Zr2664   2.375   1_455  S
O1251     Zr1271   2.384       .  S
O1252     Zr1272   2.385       .  S
O1252      H1279   0.966       .  S
O1253     Zr1265   2.438       .  S
O1253      C1255   1.287       .  A
O1254      C1255   1.285       .  A
O1256     Zr2684   2.434   1_455  S
O1256      C1258   1.287       .  A
O1257     Zr1271   2.428       .  S
O1257      C1258   1.287       .  A
O1259     Zr1268   2.438       .  S
O1259      C1261   1.287       .  A
O1260     Zr1272   2.417       .  S
O1260      C1261   1.285       .  A
O1262     Zr2681   2.436   1_455  S
O1262      C1264   1.287       .  A
O1263      C1264   1.287       .  A
Zr1265     O2678   2.436       .  S
Zr1265     O1266   2.435       .  S
Zr1265     O1267   2.434       .  S
Zr1265     O2336   2.376   1_556  S
Zr1265     O2693   2.366       .  S
Zr1265     O1275   2.368       .  S
O1266      H1286   0.990       .  S
O1266      H1291   0.990       .  S
O1267      H1287   0.990       .  S
Zr1268     O2672   2.434       .  S
Zr1268     O1269   2.434       .  S
Zr1268     O1270   2.436       .  S
Zr1268     O2690   2.377       .  S
Zr1268     O1273   2.371       .  S
Zr1268     O1278   2.368       .  S
Zr1268     O2692   2.365       .  S
O1269      H2701   0.990       .  S
O1270      H1284   0.990       .  S
O1270      H1294   0.990       .  S
Zr1271     O1274   2.379       .  S
Zr1271     O1276   2.383       .  S
Zr1272     O1273   2.381       .  S
Zr1272     O1278   2.380       .  S
O1273      H1281   0.966       .  S
O1274     Zr2327   2.376   1_455  S
O1274     Zr2684   2.377   1_455  S
O1276     Zr2664   2.368   1_455  S
O1276     Zr2684   2.365   1_455  S
O1276      H1280   0.966       .  S
O1277     Zr2661   2.369   1_455  S
O1277     Zr2681   2.366   1_455  S
O1277      H1282   0.966       .  S
H1283      O2666   0.990   1_455  S
H1285      O2685   0.990   1_455  S
H1288      O2663   0.990   1_455  S
H1289      O2662   0.990   1_455  S
O1295     Zr1307   2.447       .  S
O1295      C1297   1.289       .  A
O1296      C1297   1.286       .  A
O1298      C1300   1.288       .  A
O1299     Zr1334   2.420       .  S
O1299      C1300   1.286       .  A
O1301     Zr1310   2.442       .  S
O1301      C1303   1.288       .  A
O1302     Zr1333   2.420       .  S
O1302      C1303   1.286       .  A
O1304      C1306   1.289       .  A
O1305      C1306   1.285       .  A
Zr1307     O1308   2.434       .  S
Zr1307     O1339   2.369       .  S
O1308      H1351   0.990       .  S
Zr1310     O1311   2.435       .  S
Zr1310     O1313   2.373       .  S
Zr1310     O1338   2.368       .  S
O1311      H1355   0.990       .  S
O1313     Zr1333   2.382       .  S
O1314     Zr1334   2.385       .  S
O1314      H1341   0.966       .  S
O1315      C1317   1.288       .  A
O1316      C1317   1.286       .  A
O1318     Zr1330   2.441       .  S
O1318      C1320   1.288       .  A
O1319     Zr1333   2.427       .  S
O1319      C1320   1.287       .  A
O1321      C1323   1.288       .  A
O1322     Zr1334   2.422       .  S
O1322      C1323   1.286       .  A
O1324     Zr1327   2.439       .  S
O1324      C1326   1.287       .  A
O1325      C1326   1.287       .  A
Zr1327     O1328   2.435       .  S
Zr1327     O1329   2.434       .  S
Zr1327     O1339   2.367       .  S
O1328      H1353   0.990   1_565  S
Zr1330     O1331   2.433       .  S
Zr1330     O1332   2.435       .  S
Zr1330     O1336   2.377       .  S
Zr1330     O1338   2.366       .  S
O1331      H1347   0.990       .  S
O1332      H1356   0.990   1_565  S
Zr1333     O1336   2.379       .  S
Zr1333     O1338   2.382       .  S
Zr1334     O1335   2.382       .  S
Zr1334     O1340   2.380       .  S
O1335      H1343   0.966       .  S
O1338      H1342   0.966       .  S
O1339      H1344   0.966       .  S
C1357      C1358   1.401       .  A
C1357      C1362   1.395       .  A
C1357      H1364   1.084       .  S
C1358      C1359   1.409       .  A
C1359      C1360   1.403       .  A
C1359     Br1366   1.918       .  S
C1360      C1361   1.404       .  A
C1360      H1365   1.083       .  S
C1361      C1362   1.408       .  A
C1362     Br1363   1.921       .  S
C1367      C1368   1.406       .  A
C1367      C1372   1.399       .  A
C1367      H1374   1.083       .  S
C1368      C1369   1.415       .  A
C1369      C1370   1.394       .  A
C1369     Br1376   1.925       .  S
C1370      C1371   1.404       .  A
C1370      H1375   1.084       .  S
C1371      C1372   1.414       .  A
C1372     Br1373   1.922       .  S
C1377      C1378   1.404       .  A
C1377      C1382   1.400       .  A
C1377      H1384   1.083       .  S
C1378      C1379   1.411       .  A
C1379      C1380   1.394       .  A
C1379     Br1386   1.923       .  S
C1380      C1381   1.402       .  A
C1380      H1385   1.084       .  S
C1381      C1382   1.410       .  A
C1382     Br1383   1.919       .  S
C1387      C1388   1.406       .  A
C1387      C1392   1.402       .  A
C1387      H1394   1.083       .  S
C1388      C1389   1.412       .  A
C1389      C1390   1.396       .  A
C1389     Br1396   1.923       .  S
C1390      C1391   1.404       .  A
C1390      H1395   1.084       .  S
C1391      C1392   1.412       .  A
C1392     Br1393   1.920       .  S
C1397      C1398   1.404       .  A
C1397      C1402   1.402       .  A
C1397      H1404   1.083       .  S
C1398      C1399   1.409       .  A
C1399      C1400   1.398       .  A
C1399     Br1406   1.921       .  S
C1400      C1401   1.402       .  A
C1400      H1405   1.084       .  S
C1401      C1402   1.408       .  A
C1402     Br1403   1.918       .  S
C1407      C1408   1.404       .  A
C1407      C1412   1.397       .  A
C1407      H1414   1.084       .  S
C1408      C1409   1.412       .  A
C1409      C1410   1.401       .  A
C1409     Br1416   1.920       .  S
C1410      C1411   1.405       .  A
C1410      H1415   1.083       .  S
C1411      C1412   1.412       .  A
C1412     Br1413   1.922       .  S
C1417      C1418   1.404       .  A
C1417      C1422   1.404       .  A
C1417      C1765   1.484       .  S
C1418      C1419   1.403       .  A
C1418      H1423   1.084       .  S
C1419      C1420   1.402       .  A
C1419      C1657   1.471       .  S
C1420      C1421   1.402       .  A
C1420      H1424   1.084       .  S
C1421      C1422   1.404       .  A
C1421      C1527   1.471       .  S
C1422      H1425   1.084       .  S
C1426      C1427   1.405       .  A
C1426      C1431   1.404       .  A
C1426      C1762   1.484       .  S
C1427      C1428   1.403       .  A
C1427      H1432   1.084       .  S
C1428      C1429   1.403       .  A
C1428      C1651   1.473       .  S
C1429      C1430   1.403       .  A
C1429      H1433   1.084       .  S
C1430      C1431   1.403       .  A
C1430      C1533   1.472       .  S
C1431      H1434   1.084       .  S
C1435      C1436   1.403       .  A
C1435      C1440   1.402       .  A
C1435      C1755   1.477       .  S
C1436      C1437   1.405       .  A
C1436      H1441   1.084       .  S
C1437      C1438   1.403       .  A
C1437      C1680   1.473       .  S
C1438      C1439   1.403       .  A
C1438      H1442   1.084       .  S
C1439      C1440   1.404       .  A
C1439      C1589   1.472       .  S
C1440      H1443   1.084       .  S
C1444      C1445   1.402       .  A
C1444      C1449   1.403       .  A
C1444      C1752   1.477       .  S
C1445      C1446   1.403       .  A
C1445      H1450   1.084       .  S
C1446      C1447   1.404       .  A
C1446      C1595   1.472       .  S
C1447      C1448   1.403       .  A
C1447      H1451   1.084       .  S
C1448      C1449   1.405       .  A
C1448      C1674   1.473       .  S
C1449      H1452   1.084       .  S
C1453      C1454   1.404       .  A
C1453      C1458   1.405       .  A
C1453      C1745   1.484       .  S
C1454      C1455   1.405       .  A
C1454      H1459   1.084       .  S
C1455      C1456   1.401       .  A
C1455      C1612   1.471       .  S
C1456      C1457   1.402       .  A
C1456      H1460   1.084       .  S
C1457      C1458   1.403       .  A
C1457      C1556   1.472       .  S
C1458      H1461   1.084       .  S
C1462      C1463   1.404       .  A
C1462      C1467   1.404       .  A
C1462      C1742   1.484       .  S
C1463      C1464   1.405       .  A
C1463      H1468   1.084       .  S
C1464      C1465   1.402       .  A
C1464      C1618   1.471       .  S
C1465      C1466   1.402       .  A
C1465      H1469   1.084       .  S
C1466      C1467   1.403       .  A
C1466      C1550   1.471       .  S
C1467      H1470   1.084       .  S
C1471      C1472   1.402       .  A
C1471      C1476   1.402       .  A
C1471      C1732   1.477       .  S
C1472      C1473   1.401       .  A
C1472      H1477   1.084       .  S
C1473      C1474   1.403       .  A
C1473      C1609   1.470       .  S
C1474      C1475   1.404       .  A
C1474      H1478   1.084       .  S
C1475      C1476   1.403       .  A
C1475      C1660   1.471       .  S
C1476      H1479   1.084       .  S
C1480      C1481   1.402       .  A
C1480      C1485   1.402       .  A
C1480      C1735   1.477       .  S
C1481      C1482   1.403       .  A
C1481      H1486   1.084       .  S
C1482      C1483   1.403       .  A
C1482      C1654   1.471       .  S
C1483      C1484   1.403       .  A
C1483      H1487   1.084       .  S
C1484      C1485   1.401       .  A
C1484      C1615   1.470       .  S
C1485      H1488   1.084       .  S
C1489      C1490   1.403       .  A
C1489      C1494   1.406       .  A
C1489      C1722   1.486       .  S
C1490      C1491   1.402       .  A
C1490      H1495   1.083       .  S
C1491      C1492   1.403       .  A
C1491      C1536   1.472       .  S
C1492      C1493   1.403       .  A
C1492      H1496   1.084       .  S
C1493      C1494   1.402       .  A
C1493      C1592   1.471       .  S
C1494      H1497   1.084       .  S
C1498      C1499   1.404       .  A
C1498      C1503   1.406       .  A
C1498      C1725   1.487       .  S
C1499      C1500   1.402       .  A
C1499      H1504   1.083       .  S
C1500      C1501   1.403       .  A
C1500      C1598   1.471       .  S
C1501      C1502   1.403       .  A
C1501      H1505   1.084       .  S
C1502      C1503   1.402       .  A
C1502      C1530   1.474       .  S
C1503      H1506   1.084       .  S
C1507      C1508   1.401       .  A
C1507      C1512   1.401       .  A
C1507      C1712   1.475       .  S
C1508      C1509   1.403       .  A
C1508      H1513   1.084       .  S
C1509      C1510   1.404       .  A
C1509      C1671   1.473       .  S
C1510      C1511   1.405       .  A
C1510      H1514   1.084       .  S
C1511      C1512   1.405       .  A
C1511      C1553   1.474       .  S
C1512      H1515   1.084       .  S
C1516      C1517   1.401       .  A
C1516      C1521   1.402       .  A
C1516      C1715   1.475       .  S
C1517      C1518   1.402       .  A
C1517      H1522   1.084       .  S
C1518      C1519   1.405       .  A
C1518      C1677   1.473       .  S
C1519      C1520   1.406       .  A
C1519      H1523   1.084       .  S
C1520      C1521   1.405       .  A
C1520      C1547   1.475       .  S
C1521      H1524   1.084       .  S
O1525     Zr1537   2.442       .  S
O1525      C1527   1.288       .  A
O1526     Zr1563   2.423       .  S
O1526      C1527   1.286       .  A
O1528     Zr1540   2.445       .  S
O1528      C1530   1.289       .  A
O1529     Zr1918   2.419       .  S
O1529      C1530   1.286       .  A
O1531     Zr1540   2.443       .  S
O1531      C1533   1.288       .  A
O1532     Zr1917   2.423       .  S
O1532      C1533   1.286       .  A
O1534     Zr1537   2.437       .  S
O1534      C1536   1.288       .  A
O1535     Zr1564   2.422       .  S
O1535      C1536   1.286       .  A
Zr1537     O1538   2.434       .  S
Zr1537     O1539   2.436       .  S
Zr1537     O1543   2.374       .  S
Zr1537     O1544   2.371       .  S
Zr1537     O1567   2.372       .  S
Zr1537     O1569   2.367       .  S
O1538      H1581   0.990       .  S
O1539      H1580   0.990       .  S
O1539      H1584   0.990       .  S
Zr1540     O1541   2.435       .  S
Zr1540     O1542   2.435       .  S
Zr1540     O1898   2.371       .  S
Zr1540     O1897   2.375       .  S
Zr1540     O1568   2.368       .  S
Zr1540     O1570   2.372       .  S
O1541      H1582   0.990       .  S
O1541      H1585   0.990       .  S
O1542      H1575   0.990       .  S
O1543     Zr1894   2.375   1_554  S
O1543     Zr1563   2.380       .  S
O1544     Zr1894   2.371   1_554  S
O1544     Zr1564   2.384       .  S
O1544      H1571   0.966       .  S
O1545     Zr1557   2.443       .  S
O1545      C1547   1.288       .  A
O1546     Zr1564   2.425       .  S
O1546      C1547   1.287       .  A
O1548     Zr1560   2.441       .  S
O1548      C1550   1.288       .  A
O1549     Zr1917   2.419       .  S
O1549      C1550   1.286       .  A
O1551     Zr1560   2.439       .  S
O1551      C1553   1.287       .  A
O1552     Zr1918   2.426       .  S
O1552      C1553   1.287       .  A
O1554     Zr1557   2.442       .  S
O1554      C1556   1.288       .  A
O1555     Zr1563   2.419       .  S
O1555      C1556   1.286       .  A
Zr1557     O1558   2.435       .  S
Zr1557     O1559   2.434       .  S
Zr1557     O1565   2.373       .  S
Zr1557     O1566   2.375       .  S
Zr1557     O1569   2.367       .  S
Zr1557     O1567   2.370       .  S
O1558      H1578   0.990       .  S
O1558      H1583   0.990       .  S
O1559      H1579   0.990       .  S
Zr1560     O1561   2.434       .  S
Zr1560     O1562   2.435       .  S
Zr1560     O1920   2.375       .  S
Zr1560     O1919   2.374       .  S
Zr1560     O1570   2.371       .  S
Zr1560     O1568   2.366       .  S
O1561      H1577   0.990       .  S
O1562      H1576   0.990       .  S
O1562      H1586   0.990       .  S
Zr1563     O1886   2.423   1_554  S
Zr1563     O1903   2.419   1_554  S
Zr1563     O1566   2.381       .  S
Zr1563     O1922   2.382   1_554  S
Zr1563     O1569   2.382       .  S
Zr1564     O1883   2.419   1_554  S
Zr1564     O1906   2.426   1_554  S
Zr1564     O1565   2.383       .  S
Zr1564     O1567   2.380       .  S
Zr1564     O1924   2.381   1_554  S
O1565     Zr1914   2.374   1_554  S
O1565      H1573   0.966       .  S
O1566     Zr1914   2.375   1_554  S
O1568     Zr1917   2.382       .  S
O1568      H1572   0.966       .  S
O1569      H1574   0.966       .  S
O1570     Zr1918   2.381       .  S
O1587      C1589   1.289       .  A
O1588     Zr1979   2.420       .  S
O1588      C1589   1.286       .  A
O1590     Zr1602   2.446       .  S
O1590      C1592   1.289       .  A
O1591     Zr1626   2.416       .  S
O1591      C1592   1.285       .  A
O1593      C1595   1.289       .  A
O1594     Zr1625   2.420       .  S
O1594      C1595   1.286       .  A
O1596     Zr1599   2.445       .  S
O1596      C1598   1.289       .  A
O1597     Zr1980   2.415       .  S
O1597      C1598   1.284       .  A
Zr1599     O1600   2.434       .  S
Zr1599     O1601   2.436       .  S
Zr1599     O1960   2.372       .  S
Zr1599     O1629   2.370       .  S
O1601      H1646   0.990       .  S
Zr1602     O1603   2.435       .  S
Zr1602     O1604   2.435       .  S
Zr1602     O1606   2.374       .  S
Zr1602     O1632   2.372       .  S
O1603      H1644   0.990       .  S
O1603      H1647   0.990       .  S
O1605     Zr1625   2.384       .  S
O1606     Zr1953   2.372   1_554  S
O1606     Zr1626   2.385       .  S
O1606      H1633   0.966       .  S
O1607     Zr1619   2.438       .  S
O1607      C1609   1.287       .  A
O1608     Zr1980   2.418       .  S
O1608      C1609   1.285       .  A
O1610      C1612   1.287       .  A
O1611     Zr1625   2.428       .  S
O1611      C1612   1.287       .  A
O1613     Zr1622   2.438       .  S
O1613      C1615   1.287       .  A
O1614     Zr1626   2.417       .  S
O1614      C1615   1.285       .  A
O1616      C1618   1.287       .  A
O1617     Zr1979   2.427       .  S
O1617      C1618   1.287       .  A
Zr1619     O1620   2.435       .  S
Zr1619     O1621   2.434       .  S
Zr1619     O1981   2.372       .  S
Zr1619     O1629   2.368       .  S
O1620      H1640   0.990       .  S
O1620      H1645   0.990       .  S
O1621      H1641   0.990       .  S
Zr1622     O1623   2.434       .  S
Zr1622     O1624   2.436       .  S
Zr1622     O1627   2.371       .  S
Zr1622     O1632   2.368       .  S
O1624      H1638   0.990       .  S
O1624      H1648   0.990       .  S
Zr1625     O1942   2.420   1_554  S
Zr1625     O1971   2.427   1_554  S
Zr1625     O1628   2.379       .  S
Zr1625     O1630   2.383       .  S
Zr1625     O1985   2.384   1_554  S
Zr1626     O1951   2.415   1_554  S
Zr1626     O1962   2.418   1_554  S
Zr1626     O1627   2.381       .  S
Zr1626     O1983   2.379   1_554  S
Zr1626     O1632   2.380       .  S
O1627     Zr1973   2.372   1_554  S
O1627      H1635   0.966       .  S
O1629     Zr1980   2.379       .  S
O1630      H1634   0.966       .  S
O1631     Zr1979   2.384       .  S
O1631      H1636   0.966       .  S
O1649     Zr1661   2.447       .  S
O1649      C1651   1.289       .  A
O1650     Zr2041   2.420       .  S
O1650      C1651   1.286       .  A
O1652     Zr2372   2.440   1_545  S
O1652      C1654   1.288       .  A
O1653     Zr1688   2.420       .  S
O1653      C1654   1.286       .  A
O1655     Zr1664   2.442       .  S
O1655      C1657   1.288       .  A
O1656     Zr1687   2.420       .  S
O1656      C1657   1.286       .  A
O1658     Zr2369   2.444   1_545  S
O1658      C1660   1.289       .  A
O1659     Zr2042   2.417       .  S
O1659      C1660   1.285       .  A
Zr1661     O2366   2.444       .  S
Zr1661     O1662   2.434       .  S
Zr1661     O2371   2.436       .  S
Zr1661     O2021   2.374       .  S
Zr1661     O2730   2.373       .  S
Zr1661     O2399   2.371       .  S
Zr1661     O1693   2.369       .  S
O1662      H1705   0.990       .  S
O1663     Zr2369   2.436       .  S
O1663      H2412   0.990       .  S
O1663      H2416   0.990       .  S
Zr1664     O2360   2.440       .  S
Zr1664     O1665   2.435       .  S
Zr1664     O2374   2.435       .  S
Zr1664     O2376   2.373       .  S
Zr1664     O1667   2.373       .  S
Zr1664     O1692   2.368       .  S
Zr1664     O2402   2.372       .  S
O1665      H2414   0.990       .  S
O1665      H1709   0.990       .  S
O1666     Zr2372   2.435       .  S
O1666      H2407   0.990       .  S
O1667     Zr2015   2.374   1_554  S
O1667     Zr1687   2.382       .  S
O1668     Zr2723   2.373   1_544  S
O1668     Zr2372   2.373   1_545  S
O1668     Zr1688   2.385       .  S
O1668      H1695   0.966       .  S
O1669     Zr2389   2.440   1_545  S
O1669      C1671   1.288       .  A
O1670     Zr2042   2.424       .  S
O1670      C1671   1.286       .  A
O1672     Zr1684   2.441       .  S
O1672      C1674   1.288       .  A
O1673     Zr1687   2.427       .  S
O1673      C1674   1.287       .  A
O1675     Zr2392   2.443   1_545  S
O1675      C1677   1.288       .  A
O1676     Zr1688   2.422       .  S
O1676      C1677   1.286       .  A
O1678     Zr1681   2.439       .  S
O1678      C1680   1.287       .  A
O1679     Zr2041   2.427       .  S
O1679      C1680   1.287       .  A
Zr1681     O2377   2.440       .  S
Zr1681     O1682   2.435       .  S
Zr1681     O1683   2.434       .  S
Zr1681     O2751   2.374       .  S
Zr1681     O2044   2.376       .  S
Zr1681     O1693   2.367       .  S
Zr1681     O2399   2.368       .  S
O1682      H2410   0.990       .  S
O1682      H1707   0.990       .  S
O1683      H2411   0.990       .  S
Zr1684     O2383   2.443       .  S
Zr1684     O1685   2.433       .  S
Zr1684     O1686   2.435       .  S
Zr1684     O1690   2.377       .  S
Zr1684     O2397   2.374       .  S
Zr1684     O2402   2.368       .  S
Zr1684     O1692   2.366       .  S
O1685      H1701   0.990       .  S
O1686      H2408   0.990       .  S
O1686      H1710   0.990       .  S
Zr1687     O2004   2.420   1_554  S
Zr1687     O2033   2.427   1_554  S
Zr1687     O1690   2.379       .  S
Zr1687     O1692   2.382       .  S
Zr1687     O2047   2.383   1_554  S
Zr1688     O2013   2.417   1_554  S
Zr1688     O2024   2.424   1_554  S
Zr1688     O1689   2.382       .  S
Zr1688     O2045   2.380   1_554  S
Zr1688     O1694   2.380       .  S
O1689     Zr2743   2.374   1_544  S
O1689     Zr2392   2.374   1_545  S
O1689      H1697   0.966       .  S
O1690     Zr2035   2.376   1_554  S
O1691     Zr2369   2.371   1_545  S
O1691     Zr2389   2.368   1_545  S
O1691     Zr2042   2.380       .  S
O1692      H1696   0.966       .  S
O1693     Zr2041   2.383       .  S
O1693      H1698   0.966       .  S
O1694     Zr2372   2.372   1_545  S
O1694     Zr2392   2.368   1_545  S
H1699      O2374   0.990       .  S
H1700      O2394   0.990   1_545  S
H1702      O2390   0.990   1_545  S
H1703      O2391   0.990   1_545  S
H1704      O2371   0.990       .  S
H1706      O2373   0.990   1_545  S
H1708      O2371   0.990       .  S
C1711      C1712   1.401       .  A
C1711      C1716   1.395       .  A
C1711      H1718   1.084       .  S
C1712      C1713   1.409       .  A
C1713      C1714   1.403       .  A
C1713     Br1720   1.918       .  S
C1714      C1715   1.404       .  A
C1714      H1719   1.083       .  S
C1715      C1716   1.408       .  A
C1716     Br1717   1.921       .  S
C1721      C1722   1.406       .  A
C1721      C1726   1.399       .  A
C1721      H1728   1.083       .  S
C1722      C1723   1.415       .  A
C1723      C1724   1.394       .  A
C1723     Br1730   1.925       .  S
C1724      C1725   1.404       .  A
C1724      H1729   1.084       .  S
C1725      C1726   1.414       .  A
C1726     Br1727   1.922       .  S
C1731      C1732   1.404       .  A
C1731      C1736   1.400       .  A
C1731      H1738   1.083       .  S
C1732      C1733   1.411       .  A
C1733      C1734   1.394       .  A
C1733     Br1740   1.923       .  S
C1734      C1735   1.402       .  A
C1734      H1739   1.084       .  S
C1735      C1736   1.410       .  A
C1736     Br1737   1.919       .  S
C1741      C1742   1.406       .  A
C1741      C1746   1.402       .  A
C1741      H1748   1.083       .  S
C1742      C1743   1.412       .  A
C1743      C1744   1.396       .  A
C1743     Br1750   1.923       .  S
C1744      C1745   1.404       .  A
C1744      H1749   1.084       .  S
C1745      C1746   1.412       .  A
C1746     Br1747   1.920       .  S
C1751      C1752   1.404       .  A
C1751      C1756   1.402       .  A
C1751      H1758   1.083       .  S
C1752      C1753   1.409       .  A
C1753      C1754   1.398       .  A
C1753     Br1760   1.921       .  S
C1754      C1755   1.402       .  A
C1754      H1759   1.084       .  S
C1755      C1756   1.408       .  A
C1756     Br1757   1.918       .  S
C1761      C1762   1.404       .  A
C1761      C1766   1.397       .  A
C1761      H1768   1.084       .  S
C1762      C1763   1.412       .  A
C1763      C1764   1.401       .  A
C1763     Br1770   1.920       .  S
C1764      C1765   1.405       .  A
C1764      H1769   1.083       .  S
C1765      C1766   1.412       .  A
C1766     Br1767   1.922       .  S
C1771      C1772   1.404       .  A
C1771      C1776   1.404       .  A
C1771      C2119   1.484       .  S
C1772      C1773   1.403       .  A
C1772      H1777   1.084       .  S
C1773      C1774   1.402       .  A
C1773      C2011   1.471       .  S
C1774      C1775   1.402       .  A
C1774      H1778   1.084       .  S
C1775      C1776   1.404       .  A
C1775      C1881   1.471       .  S
C1776      H1779   1.084       .  S
C1780      C1781   1.405       .  A
C1780      C1785   1.404       .  A
C1780      C2116   1.484       .  S
C1781      C1782   1.403       .  A
C1781      H1786   1.084       .  S
C1782      C1783   1.403       .  A
C1782      C2005   1.473       .  S
C1783      C1784   1.403       .  A
C1783      H1787   1.084       .  S
C1784      C1785   1.403       .  A
C1784      C1887   1.472       .  S
C1785      H1788   1.084       .  S
C1789      C1790   1.403       .  A
C1789      C1794   1.402       .  A
C1789      C2109   1.477       .  S
C1790      C1791   1.405       .  A
C1790      H1795   1.084       .  S
C1791      C1792   1.403       .  A
C1791      C2034   1.473       .  S
C1792      C1793   1.403       .  A
C1792      H1796   1.084       .  S
C1793      C1794   1.404       .  A
C1793      C1943   1.472       .  S
C1794      H1797   1.084       .  S
C1798      C1799   1.402       .  A
C1798      C1803   1.403       .  A
C1798      C2106   1.477       .  S
C1799      C1800   1.403       .  A
C1799      H1804   1.084       .  S
C1800      C1801   1.404       .  A
C1800      C1949   1.472       .  S
C1801      C1802   1.403       .  A
C1801      H1805   1.084       .  S
C1802      C1803   1.405       .  A
C1802      C2028   1.473       .  S
C1803      H1806   1.084       .  S
C1807      C1808   1.404       .  A
C1807      C1812   1.405       .  A
C1807      C2099   1.484       .  S
C1808      C1809   1.405       .  A
C1808      H1813   1.084       .  S
C1809      C1810   1.401       .  A
C1809      C1966   1.471       .  S
C1810      C1811   1.402       .  A
C1810      H1814   1.084       .  S
C1811      C1812   1.403       .  A
C1811      C1910   1.472       .  S
C1812      H1815   1.084       .  S
C1816      C1817   1.404       .  A
C1816      C1821   1.404       .  A
C1816      C2096   1.484       .  S
C1817      C1818   1.405       .  A
C1817      H1822   1.084       .  S
C1818      C1819   1.402       .  A
C1818      C1972   1.471       .  S
C1819      C1820   1.402       .  A
C1819      H1823   1.084       .  S
C1820      C1821   1.403       .  A
C1820      C1904   1.471       .  S
C1821      H1824   1.084       .  S
C1825      C1826   1.402       .  A
C1825      C1830   1.402       .  A
C1825      C2086   1.477       .  S
C1826      C1827   1.401       .  A
C1826      H1831   1.084       .  S
C1827      C1828   1.403       .  A
C1827      C1963   1.470       .  S
C1828      C1829   1.404       .  A
C1828      H1832   1.084       .  S
C1829      C1830   1.403       .  A
C1829      C2014   1.471       .  S
C1830      H1833   1.084       .  S
C1834      C1835   1.402       .  A
C1834      C1839   1.402       .  A
C1834      C2089   1.477       .  S
C1835      C1836   1.403       .  A
C1835      H1840   1.084       .  S
C1836      C1837   1.403       .  A
C1836      C2008   1.471       .  S
C1837      C1838   1.403       .  A
C1837      H1841   1.084       .  S
C1838      C1839   1.401       .  A
C1838      C1969   1.470       .  S
C1839      H1842   1.084       .  S
C1843      C1844   1.403       .  A
C1843      C1848   1.406       .  A
C1843      C2076   1.486       .  S
C1844      C1845   1.402       .  A
C1844      H1849   1.083       .  S
C1845      C1846   1.403       .  A
C1845      C1890   1.472       .  S
C1846      C1847   1.403       .  A
C1846      H1850   1.084       .  S
C1847      C1848   1.402       .  A
C1847      C1946   1.471       .  S
C1848      H1851   1.084       .  S
C1852      C1853   1.404       .  A
C1852      C1857   1.406       .  A
C1852      C2079   1.487       .  S
C1853      C1854   1.402       .  A
C1853      H1858   1.083       .  S
C1854      C1855   1.403       .  A
C1854      C1952   1.471       .  S
C1855      C1856   1.403       .  A
C1855      H1859   1.084       .  S
C1856      C1857   1.402       .  A
C1856      C1884   1.474       .  S
C1857      H1860   1.084       .  S
C1861      C1862   1.401       .  A
C1861      C1866   1.401       .  A
C1861      C2066   1.475       .  S
C1862      C1863   1.403       .  A
C1862      H1867   1.084       .  S
C1863      C1864   1.404       .  A
C1863      C2025   1.473       .  S
C1864      C1865   1.405       .  A
C1864      H1868   1.084       .  S
C1865      C1866   1.405       .  A
C1865      C1907   1.474       .  S
C1866      H1869   1.084       .  S
C1870      C1871   1.401       .  A
C1870      C1875   1.402       .  A
C1870      C2069   1.475       .  S
C1871      C1872   1.402       .  A
C1871      H1876   1.084       .  S
C1872      C1873   1.405       .  A
C1872      C2031   1.473       .  S
C1873      C1874   1.406       .  A
C1873      H1877   1.084       .  S
C1874      C1875   1.405       .  A
C1874      C1901   1.475       .  S
C1875      H1878   1.084       .  S
O1879     Zr1891   2.442       .  S
O1879      C1881   1.288       .  A
O1880     Zr1917   2.423       .  S
O1880      C1881   1.286       .  A
O1882     Zr1894   2.445       .  S
O1882      C1884   1.289       .  A
O1883      C1884   1.286       .  A
O1885     Zr1894   2.443       .  S
O1885      C1887   1.288       .  A
O1886      C1887   1.286       .  A
O1888     Zr1891   2.437       .  S
O1888      C1890   1.288       .  A
O1889     Zr1918   2.422       .  S
O1889      C1890   1.286       .  A
Zr1891     O1892   2.434       .  S
Zr1891     O1893   2.436       .  S
Zr1891     O1897   2.374       .  S
Zr1891     O1898   2.371       .  S
Zr1891     O1921   2.372       .  S
Zr1891     O1923   2.367       .  S
O1892      H1935   0.990       .  S
O1893      H1934   0.990       .  S
O1893      H1938   0.990       .  S
Zr1894     O1895   2.435       .  S
Zr1894     O1896   2.435       .  S
Zr1894     O1922   2.368       .  S
Zr1894     O1924   2.372       .  S
O1895      H1936   0.990       .  S
O1895      H1939   0.990       .  S
O1896      H1929   0.990       .  S
O1897     Zr1917   2.380       .  S
O1898     Zr1918   2.384       .  S
O1898      H1925   0.966       .  S
O1899     Zr1911   2.443       .  S
O1899      C1901   1.288       .  A
O1900     Zr1918   2.425       .  S
O1900      C1901   1.287       .  A
O1902     Zr1914   2.441       .  S
O1902      C1904   1.288       .  A
O1903      C1904   1.286       .  A
O1905     Zr1914   2.439       .  S
O1905      C1907   1.287       .  A
O1906      C1907   1.287       .  A
O1908     Zr1911   2.442       .  S
O1908      C1910   1.288       .  A
O1909     Zr1917   2.419       .  S
O1909      C1910   1.286       .  A
Zr1911     O1912   2.435       .  S
Zr1911     O1913   2.434       .  S
Zr1911     O1919   2.373       .  S
Zr1911     O1920   2.375       .  S
Zr1911     O1923   2.367       .  S
Zr1911     O1921   2.370       .  S
O1912      H1932   0.990       .  S
O1912      H1937   0.990       .  S
O1913      H1933   0.990       .  S
Zr1914     O1915   2.434       .  S
Zr1914     O1916   2.435       .  S
Zr1914     O1924   2.371       .  S
Zr1914     O1922   2.366       .  S
O1915      H1931   0.990       .  S
O1916      H1930   0.990       .  S
O1916      H1940   0.990       .  S
Zr1917     O1920   2.381       .  S
Zr1917     O1923   2.382       .  S
Zr1918     O1919   2.383       .  S
Zr1918     O1921   2.380       .  S
O1919      H1927   0.966       .  S
O1922      H1926   0.966       .  S
O1923      H1928   0.966       .  S
O1941      C1943   1.289       .  A
O1942      C1943   1.286       .  A
O1944     Zr1956   2.446       .  S
O1944      C1946   1.289       .  A
O1945     Zr1980   2.416       .  S
O1945      C1946   1.285       .  A
O1947      C1949   1.289       .  A
O1948     Zr1979   2.420       .  S
O1948      C1949   1.286       .  A
O1950     Zr1953   2.445       .  S
O1950      C1952   1.289       .  A
O1951      C1952   1.284       .  A
Zr1953     O1954   2.434       .  S
Zr1953     O1955   2.436       .  S
Zr1953     O1983   2.370       .  S
O1955      H2000   0.990       .  S
Zr1956     O1957   2.435       .  S
Zr1956     O1958   2.435       .  S
Zr1956     O1960   2.374       .  S
Zr1956     O1986   2.372       .  S
O1957      H1998   0.990       .  S
O1957      H2001   0.990       .  S
O1959     Zr1979   2.384       .  S
O1960     Zr1980   2.385       .  S
O1960      H1987   0.966       .  S
O1961     Zr1973   2.438       .  S
O1961      C1963   1.287       .  A
O1962      C1963   1.285       .  A
O1964      C1966   1.287       .  A
O1965     Zr1979   2.428       .  S
O1965      C1966   1.287       .  A
O1967     Zr1976   2.438       .  S
O1967      C1969   1.287       .  A
O1968     Zr1980   2.417       .  S
O1968      C1969   1.285       .  A
O1970      C1972   1.287       .  A
O1971      C1972   1.287       .  A
Zr1973     O1974   2.435       .  S
Zr1973     O1975   2.434       .  S
Zr1973     O1983   2.368       .  S
O1974      H1994   0.990       .  S
O1974      H1999   0.990       .  S
O1975      H1995   0.990       .  S
Zr1976     O1977   2.434       .  S
Zr1976     O1978   2.436       .  S
Zr1976     O1981   2.371       .  S
Zr1976     O1986   2.368       .  S
O1978      H1992   0.990       .  S
O1978      H2002   0.990       .  S
Zr1979     O1982   2.379       .  S
Zr1979     O1984   2.383       .  S
Zr1980     O1981   2.381       .  S
Zr1980     O1986   2.380       .  S
O1981      H1989   0.966       .  S
O1984      H1988   0.966       .  S
O1985      H1990   0.966       .  S
O2003     Zr2015   2.447       .  S
O2003      C2005   1.289       .  A
O2004      C2005   1.286       .  A
O2006     Zr2726   2.440   1_545  S
O2006      C2008   1.288       .  A
O2007     Zr2042   2.420       .  S
O2007      C2008   1.286       .  A
O2009     Zr2018   2.442       .  S
O2009      C2011   1.288       .  A
O2010     Zr2041   2.420       .  S
O2010      C2011   1.286       .  A
O2012     Zr2723   2.444   1_545  S
O2012      C2014   1.289       .  A
O2013      C2014   1.285       .  A
Zr2015     O2720   2.444       .  S
Zr2015     O2016   2.434       .  S
Zr2015     O2725   2.436       .  S
Zr2015     O2376   2.373   1_556  S
Zr2015     O2753   2.371       .  S
Zr2015     O2047   2.369       .  S
O2016      H2059   0.990       .  S
O2017     Zr2723   2.436       .  S
O2017      H2766   0.990       .  S
O2017      H2770   0.990       .  S
Zr2018     O2714   2.440       .  S
Zr2018     O2019   2.435       .  S
Zr2018     O2728   2.435       .  S
Zr2018     O2730   2.373       .  S
Zr2018     O2021   2.373       .  S
Zr2018     O2046   2.368       .  S
Zr2018     O2756   2.372       .  S
O2019      H2768   0.990       .  S
O2019      H2063   0.990       .  S
O2020     Zr2726   2.435       .  S
O2020      H2761   0.990       .  S
O2021     Zr2041   2.382       .  S
O2022     Zr2369   2.373   1_545  S
O2022     Zr2726   2.373   1_545  S
O2022     Zr2042   2.385       .  S
O2022      H2049   0.966       .  S
O2023     Zr2743   2.440   1_545  S
O2023      C2025   1.288       .  A
O2024      C2025   1.286       .  A
O2026     Zr2038   2.441       .  S
O2026      C2028   1.288       .  A
O2027     Zr2041   2.427       .  S
O2027      C2028   1.287       .  A
O2029     Zr2746   2.443   1_545  S
O2029      C2031   1.288       .  A
O2030     Zr2042   2.422       .  S
O2030      C2031   1.286       .  A
O2032     Zr2035   2.439       .  S
O2032      C2034   1.287       .  A
O2033      C2034   1.287       .  A
Zr2035     O2731   2.440       .  S
Zr2035     O2036   2.435       .  S
Zr2035     O2037   2.434       .  S
Zr2035     O2397   2.374   1_556  S
Zr2035     O2047   2.367       .  S
Zr2035     O2753   2.368       .  S
O2036      H2764   0.990       .  S
O2036      H2061   0.990       .  S
O2037      H2765   0.990       .  S
Zr2038     O2737   2.443       .  S
Zr2038     O2039   2.433       .  S
Zr2038     O2040   2.435       .  S
Zr2038     O2044   2.377       .  S
Zr2038     O2751   2.374       .  S
Zr2038     O2756   2.368       .  S
Zr2038     O2046   2.366       .  S
O2039      H2055   0.990       .  S
O2040      H2762   0.990       .  S
O2040      H2064   0.990       .  S
Zr2041     O2044   2.379       .  S
Zr2041     O2046   2.382       .  S
Zr2042     O2043   2.382       .  S
Zr2042     O2048   2.380       .  S
O2043     Zr2389   2.374   1_545  S
O2043     Zr2746   2.374   1_545  S
O2043      H2051   0.966       .  S
O2045     Zr2723   2.371   1_545  S
O2045     Zr2743   2.368   1_545  S
O2046      H2050   0.966       .  S
O2047      H2052   0.966       .  S
O2048     Zr2726   2.372   1_545  S
O2048     Zr2746   2.368   1_545  S
H2053      O2728   0.990       .  S
H2054      O2748   0.990   1_545  S
H2056      O2744   0.990   1_545  S
H2057      O2745   0.990   1_545  S
H2058      O2725   0.990       .  S
H2060      O2727   0.990   1_545  S
H2062      O2725   0.990       .  S
C2065      C2066   1.401       .  A
C2065      C2070   1.395       .  A
C2065      H2072   1.084       .  S
C2066      C2067   1.409       .  A
C2067      C2068   1.403       .  A
C2067     Br2074   1.918       .  S
C2068      C2069   1.404       .  A
C2068      H2073   1.083       .  S
C2069      C2070   1.408       .  A
C2070     Br2071   1.921       .  S
C2075      C2076   1.406       .  A
C2075      C2080   1.399       .  A
C2075      H2082   1.083       .  S
C2076      C2077   1.415       .  A
C2077      C2078   1.394       .  A
C2077     Br2084   1.925       .  S
C2078      C2079   1.404       .  A
C2078      H2083   1.084       .  S
C2079      C2080   1.414       .  A
C2080     Br2081   1.922       .  S
C2085      C2086   1.404       .  A
C2085      C2090   1.400       .  A
C2085      H2092   1.083       .  S
C2086      C2087   1.411       .  A
C2087      C2088   1.394       .  A
C2087     Br2094   1.923       .  S
C2088      C2089   1.402       .  A
C2088      H2093   1.084       .  S
C2089      C2090   1.410       .  A
C2090     Br2091   1.919       .  S
C2095      C2096   1.406       .  A
C2095      C2100   1.402       .  A
C2095      H2102   1.083       .  S
C2096      C2097   1.412       .  A
C2097      C2098   1.396       .  A
C2097     Br2104   1.923       .  S
C2098      C2099   1.404       .  A
C2098      H2103   1.084       .  S
C2099      C2100   1.412       .  A
C2100     Br2101   1.920       .  S
C2105      C2106   1.404       .  A
C2105      C2110   1.402       .  A
C2105      H2112   1.083       .  S
C2106      C2107   1.409       .  A
C2107      C2108   1.398       .  A
C2107     Br2114   1.921       .  S
C2108      C2109   1.402       .  A
C2108      H2113   1.084       .  S
C2109      C2110   1.408       .  A
C2110     Br2111   1.918       .  S
C2115      C2116   1.404       .  A
C2115      C2120   1.397       .  A
C2115      H2122   1.084       .  S
C2116      C2117   1.412       .  A
C2117      C2118   1.401       .  A
C2117     Br2124   1.920       .  S
C2118      C2119   1.405       .  A
C2118      H2123   1.083       .  S
C2119      C2120   1.412       .  A
C2120     Br2121   1.922       .  S
C2125      C2126   1.404       .  A
C2125      C2130   1.404       .  A
C2125      C2473   1.484       .  S
C2126      C2127   1.403       .  A
C2126      H2131   1.084       .  S
C2127      C2128   1.402       .  A
C2127      C2365   1.471       .  S
C2128      C2129   1.402       .  A
C2128      H2132   1.084       .  S
C2129      C2130   1.404       .  A
C2129      C2235   1.471       .  S
C2130      H2133   1.084       .  S
C2134      C2135   1.405       .  A
C2134      C2139   1.404       .  A
C2134      C2470   1.484       .  S
C2135      C2136   1.403       .  A
C2135      H2140   1.084       .  S
C2136      C2137   1.403       .  A
C2136      C2359   1.473       .  S
C2137      C2138   1.403       .  A
C2137      H2141   1.084       .  S
C2138      C2139   1.403       .  A
C2138      C2241   1.472       .  S
C2139      H2142   1.084       .  S
C2143      C2144   1.403       .  A
C2143      C2148   1.402       .  A
C2143      C2463   1.477       .  S
C2144      C2145   1.405       .  A
C2144      H2149   1.084       .  S
C2145      C2146   1.403       .  A
C2145      C2388   1.473       .  S
C2146      C2147   1.403       .  A
C2146      H2150   1.084       .  S
C2147      C2148   1.404       .  A
C2147      C2297   1.472       .  S
C2148      H2151   1.084       .  S
C2152      C2153   1.402       .  A
C2152      C2157   1.403       .  A
C2152      C2460   1.477       .  S
C2153      C2154   1.403       .  A
C2153      H2158   1.084       .  S
C2154      C2155   1.404       .  A
C2154      C2303   1.472       .  S
C2155      C2156   1.403       .  A
C2155      H2159   1.084       .  S
C2156      C2157   1.405       .  A
C2156      C2382   1.473       .  S
C2157      H2160   1.084       .  S
C2161      C2162   1.404       .  A
C2161      C2166   1.405       .  A
C2161      C2453   1.484       .  S
C2162      C2163   1.405       .  A
C2162      H2167   1.084       .  S
C2163      C2164   1.401       .  A
C2163      C2320   1.471       .  S
C2164      C2165   1.402       .  A
C2164      H2168   1.084       .  S
C2165      C2166   1.403       .  A
C2165      C2264   1.472       .  S
C2166      H2169   1.084       .  S
C2170      C2171   1.404       .  A
C2170      C2175   1.404       .  A
C2170      C2450   1.484       .  S
C2171      C2172   1.405       .  A
C2171      H2176   1.084       .  S
C2172      C2173   1.402       .  A
C2172      C2326   1.471       .  S
C2173      C2174   1.402       .  A
C2173      H2177   1.084       .  S
C2174      C2175   1.403       .  A
C2174      C2258   1.471       .  S
C2175      H2178   1.084       .  S
C2179      C2180   1.402       .  A
C2179      C2184   1.402       .  A
C2179      C2440   1.477       .  S
C2180      C2181   1.401       .  A
C2180      H2185   1.084       .  S
C2181      C2182   1.403       .  A
C2181      C2317   1.470       .  S
C2182      C2183   1.404       .  A
C2182      H2186   1.084       .  S
C2183      C2184   1.403       .  A
C2183      C2368   1.471       .  S
C2184      H2187   1.084       .  S
C2188      C2189   1.402       .  A
C2188      C2193   1.402       .  A
C2188      C2443   1.477       .  S
C2189      C2190   1.403       .  A
C2189      H2194   1.084       .  S
C2190      C2191   1.403       .  A
C2190      C2362   1.471       .  S
C2191      C2192   1.403       .  A
C2191      H2195   1.084       .  S
C2192      C2193   1.401       .  A
C2192      C2323   1.470       .  S
C2193      H2196   1.084       .  S
C2197      C2198   1.403       .  A
C2197      C2202   1.406       .  A
C2197      C2430   1.486       .  S
C2198      C2199   1.402       .  A
C2198      H2203   1.083       .  S
C2199      C2200   1.403       .  A
C2199      C2244   1.472       .  S
C2200      C2201   1.403       .  A
C2200      H2204   1.084       .  S
C2201      C2202   1.402       .  A
C2201      C2300   1.471       .  S
C2202      H2205   1.084       .  S
C2206      C2207   1.404       .  A
C2206      C2211   1.406       .  A
C2206      C2433   1.487       .  S
C2207      C2208   1.402       .  A
C2207      H2212   1.083       .  S
C2208      C2209   1.403       .  A
C2208      C2306   1.471       .  S
C2209      C2210   1.403       .  A
C2209      H2213   1.084       .  S
C2210      C2211   1.402       .  A
C2210      C2238   1.474       .  S
C2211      H2214   1.084       .  S
C2215      C2216   1.401       .  A
C2215      C2220   1.401       .  A
C2215      C2420   1.475       .  S
C2216      C2217   1.403       .  A
C2216      H2221   1.084       .  S
C2217      C2218   1.404       .  A
C2217      C2379   1.473       .  S
C2218      C2219   1.405       .  A
C2218      H2222   1.084       .  S
C2219      C2220   1.405       .  A
C2219      C2261   1.474       .  S
C2220      H2223   1.084       .  S
C2224      C2225   1.401       .  A
C2224      C2229   1.402       .  A
C2224      C2423   1.475       .  S
C2225      C2226   1.402       .  A
C2225      H2230   1.084       .  S
C2226      C2227   1.405       .  A
C2226      C2385   1.473       .  S
C2227      C2228   1.406       .  A
C2227      H2231   1.084       .  S
C2228      C2229   1.405       .  A
C2228      C2255   1.475       .  S
C2229      H2232   1.084       .  S
O2233     Zr2245   2.442       .  S
O2233      C2235   1.288       .  A
O2234     Zr2271   2.423       .  S
O2234      C2235   1.286       .  A
O2236     Zr2248   2.445       .  S
O2236      C2238   1.289       .  A
O2237     Zr2626   2.419       .  S
O2237      C2238   1.286       .  A
O2239     Zr2248   2.443       .  S
O2239      C2241   1.288       .  A
O2240     Zr2625   2.423       .  S
O2240      C2241   1.286       .  A
O2242     Zr2245   2.437       .  S
O2242      C2244   1.288       .  A
O2243     Zr2272   2.422       .  S
O2243      C2244   1.286       .  A
Zr2245     O2246   2.434       .  S
Zr2245     O2247   2.436       .  S
Zr2245     O2251   2.374       .  S
Zr2245     O2252   2.371       .  S
Zr2245     O2275   2.372       .  S
Zr2245     O2277   2.367       .  S
O2246      H2289   0.990       .  S
O2247      H2288   0.990       .  S
O2247      H2292   0.990       .  S
Zr2248     O2249   2.435       .  S
Zr2248     O2250   2.435       .  S
Zr2248     O2606   2.371       .  S
Zr2248     O2605   2.375       .  S
Zr2248     O2276   2.368       .  S
Zr2248     O2278   2.372       .  S
O2249      H2290   0.990       .  S
O2249      H2293   0.990       .  S
O2250      H2283   0.990       .  S
O2251     Zr2602   2.375   1_554  S
O2251     Zr2271   2.380       .  S
O2252     Zr2602   2.371   1_554  S
O2252     Zr2272   2.384       .  S
O2252      H2279   0.966       .  S
O2253     Zr2265   2.443       .  S
O2253      C2255   1.288       .  A
O2254     Zr2272   2.425       .  S
O2254      C2255   1.287       .  A
O2256     Zr2268   2.441       .  S
O2256      C2258   1.288       .  A
O2257     Zr2625   2.419       .  S
O2257      C2258   1.286       .  A
O2259     Zr2268   2.439       .  S
O2259      C2261   1.287       .  A
O2260     Zr2626   2.426       .  S
O2260      C2261   1.287       .  A
O2262     Zr2265   2.442       .  S
O2262      C2264   1.288       .  A
O2263     Zr2271   2.419       .  S
O2263      C2264   1.286       .  A
Zr2265     O2266   2.435       .  S
Zr2265     O2267   2.434       .  S
Zr2265     O2273   2.373       .  S
Zr2265     O2274   2.375       .  S
Zr2265     O2277   2.367       .  S
Zr2265     O2275   2.370       .  S
O2266      H2286   0.990       .  S
O2266      H2291   0.990       .  S
O2267      H2287   0.990       .  S
Zr2268     O2269   2.434       .  S
Zr2268     O2270   2.435       .  S
Zr2268     O2628   2.375       .  S
Zr2268     O2627   2.374       .  S
Zr2268     O2278   2.371       .  S
Zr2268     O2276   2.366       .  S
O2269      H2285   0.990       .  S
O2270      H2284   0.990       .  S
O2270      H2294   0.990       .  S
Zr2271     O2594   2.423   1_554  S
Zr2271     O2611   2.419   1_554  S
Zr2271     O2274   2.381       .  S
Zr2271     O2630   2.382   1_554  S
Zr2271     O2277   2.382       .  S
Zr2272     O2591   2.419   1_554  S
Zr2272     O2614   2.426   1_554  S
Zr2272     O2273   2.383       .  S
Zr2272     O2275   2.380       .  S
Zr2272     O2632   2.381   1_554  S
O2273     Zr2622   2.374   1_554  S
O2273      H2281   0.966       .  S
O2274     Zr2622   2.375   1_554  S
O2276     Zr2625   2.382       .  S
O2276      H2280   0.966       .  S
O2277      H2282   0.966       .  S
O2278     Zr2626   2.381       .  S
O2295      C2297   1.289       .  A
O2296     Zr2687   2.420       .  S
O2296      C2297   1.286       .  A
O2298     Zr2310   2.446       .  S
O2298      C2300   1.289       .  A
O2299     Zr2334   2.416       .  S
O2299      C2300   1.285       .  A
O2301      C2303   1.289       .  A
O2302     Zr2333   2.420       .  S
O2302      C2303   1.286       .  A
O2304     Zr2307   2.445       .  S
O2304      C2306   1.289       .  A
O2305     Zr2688   2.415       .  S
O2305      C2306   1.284       .  A
Zr2307     O2308   2.434       .  S
Zr2307     O2309   2.436       .  S
Zr2307     O2668   2.372       .  S
Zr2307     O2337   2.370       .  S
O2309      H2354   0.990       .  S
Zr2310     O2311   2.435       .  S
Zr2310     O2312   2.435       .  S
Zr2310     O2314   2.374       .  S
Zr2310     O2340   2.372       .  S
O2311      H2352   0.990       .  S
O2311      H2355   0.990       .  S
O2313     Zr2333   2.384       .  S
O2314     Zr2661   2.372   1_554  S
O2314     Zr2334   2.385       .  S
O2314      H2341   0.966       .  S
O2315     Zr2327   2.438       .  S
O2315      C2317   1.287       .  A
O2316     Zr2688   2.418       .  S
O2316      C2317   1.285       .  A
O2318      C2320   1.287       .  A
O2319     Zr2333   2.428       .  S
O2319      C2320   1.287       .  A
O2321     Zr2330   2.438       .  S
O2321      C2323   1.287       .  A
O2322     Zr2334   2.417       .  S
O2322      C2323   1.285       .  A
O2324      C2326   1.287       .  A
O2325     Zr2687   2.427       .  S
O2325      C2326   1.287       .  A
Zr2327     O2328   2.435       .  S
Zr2327     O2329   2.434       .  S
Zr2327     O2689   2.372       .  S
Zr2327     O2337   2.368       .  S
O2328      H2348   0.990       .  S
O2328      H2353   0.990       .  S
O2329      H2349   0.990       .  S
Zr2330     O2331   2.434       .  S
Zr2330     O2332   2.436       .  S
Zr2330     O2335   2.371       .  S
Zr2330     O2340   2.368       .  S
O2332      H2346   0.990       .  S
O2332      H2356   0.990       .  S
Zr2333     O2650   2.420   1_554  S
Zr2333     O2679   2.427   1_554  S
Zr2333     O2336   2.379       .  S
Zr2333     O2338   2.383       .  S
Zr2333     O2693   2.384   1_554  S
Zr2334     O2659   2.415   1_554  S
Zr2334     O2670   2.418   1_554  S
Zr2334     O2335   2.381       .  S
Zr2334     O2691   2.379   1_554  S
Zr2334     O2340   2.380       .  S
O2335     Zr2681   2.372   1_554  S
O2335      H2343   0.966       .  S
O2337     Zr2688   2.379       .  S
O2338      H2342   0.966       .  S
O2339     Zr2687   2.384       .  S
O2339      H2344   0.966       .  S
O2357     Zr2369   2.447       .  S
O2357      C2359   1.289       .  A
O2358     Zr2749   2.420       .  S
O2358      C2359   1.286       .  A
O2360      C2362   1.288       .  A
O2361     Zr2396   2.420       .  S
O2361      C2362   1.286       .  A
O2363     Zr2372   2.442       .  S
O2363      C2365   1.288       .  A
O2364     Zr2395   2.420       .  S
O2364      C2365   1.286       .  A
O2366      C2368   1.289       .  A
O2367     Zr2750   2.417       .  S
O2367      C2368   1.285       .  A
Zr2369     O2370   2.434       .  S
Zr2369     O2729   2.374       .  S
Zr2369     O2401   2.369       .  S
O2370      H2413   0.990       .  S
Zr2372     O2373   2.435       .  S
Zr2372     O2375   2.373       .  S
Zr2372     O2400   2.368       .  S
O2373      H2417   0.990       .  S
O2375     Zr2723   2.374   1_554  S
O2375     Zr2395   2.382       .  S
O2376     Zr2396   2.385       .  S
O2376      H2403   0.966       .  S
O2377      C2379   1.288       .  A
O2378     Zr2750   2.424       .  S
O2378      C2379   1.286       .  A
O2380     Zr2392   2.441       .  S
O2380      C2382   1.288       .  A
O2381     Zr2395   2.427       .  S
O2381      C2382   1.287       .  A
O2383      C2385   1.288       .  A
O2384     Zr2396   2.422       .  S
O2384      C2385   1.286       .  A
O2386     Zr2389   2.439       .  S
O2386      C2388   1.287       .  A
O2387     Zr2749   2.427       .  S
O2387      C2388   1.287       .  A
Zr2389     O2390   2.435       .  S
Zr2389     O2391   2.434       .  S
Zr2389     O2752   2.376       .  S
Zr2389     O2401   2.367       .  S
O2390      H2415   0.990   1_565  S
Zr2392     O2393   2.433       .  S
Zr2392     O2394   2.435       .  S
Zr2392     O2398   2.377       .  S
Zr2392     O2400   2.366       .  S
O2393      H2409   0.990       .  S
O2394      H2418   0.990   1_565  S
Zr2395     O2712   2.420   1_554  S
Zr2395     O2741   2.427   1_554  S
Zr2395     O2398   2.379       .  S
Zr2395     O2400   2.382       .  S
Zr2395     O2755   2.383   1_554  S
Zr2396     O2721   2.417   1_554  S
Zr2396     O2732   2.424   1_554  S
Zr2396     O2397   2.382       .  S
Zr2396     O2753   2.380   1_554  S
Zr2396     O2402   2.380       .  S
O2397      H2405   0.966       .  S
O2398     Zr2743   2.376   1_554  S
O2399     Zr2750   2.380       .  S
O2400      H2404   0.966       .  S
O2401     Zr2749   2.383       .  S
O2401      H2406   0.966       .  S
C2419      C2420   1.401       .  A
C2419      C2424   1.395       .  A
C2419      H2426   1.084       .  S
C2420      C2421   1.409       .  A
C2421      C2422   1.403       .  A
C2421     Br2428   1.918       .  S
C2422      C2423   1.404       .  A
C2422      H2427   1.083       .  S
C2423      C2424   1.408       .  A
C2424     Br2425   1.921       .  S
C2429      C2430   1.406       .  A
C2429      C2434   1.399       .  A
C2429      H2436   1.083       .  S
C2430      C2431   1.415       .  A
C2431      C2432   1.394       .  A
C2431     Br2438   1.925       .  S
C2432      C2433   1.404       .  A
C2432      H2437   1.084       .  S
C2433      C2434   1.414       .  A
C2434     Br2435   1.922       .  S
C2439      C2440   1.404       .  A
C2439      C2444   1.400       .  A
C2439      H2446   1.083       .  S
C2440      C2441   1.411       .  A
C2441      C2442   1.394       .  A
C2441     Br2448   1.923       .  S
C2442      C2443   1.402       .  A
C2442      H2447   1.084       .  S
C2443      C2444   1.410       .  A
C2444     Br2445   1.919       .  S
C2449      C2450   1.406       .  A
C2449      C2454   1.402       .  A
C2449      H2456   1.083       .  S
C2450      C2451   1.412       .  A
C2451      C2452   1.396       .  A
C2451     Br2458   1.923       .  S
C2452      C2453   1.404       .  A
C2452      H2457   1.084       .  S
C2453      C2454   1.412       .  A
C2454     Br2455   1.920       .  S
C2459      C2460   1.404       .  A
C2459      C2464   1.402       .  A
C2459      H2466   1.083       .  S
C2460      C2461   1.409       .  A
C2461      C2462   1.398       .  A
C2461     Br2468   1.921       .  S
C2462      C2463   1.402       .  A
C2462      H2467   1.084       .  S
C2463      C2464   1.408       .  A
C2464     Br2465   1.918       .  S
C2469      C2470   1.404       .  A
C2469      C2474   1.397       .  A
C2469      H2476   1.084       .  S
C2470      C2471   1.412       .  A
C2471      C2472   1.401       .  A
C2471     Br2478   1.920       .  S
C2472      C2473   1.405       .  A
C2472      H2477   1.083       .  S
C2473      C2474   1.412       .  A
C2474     Br2475   1.922       .  S
C2479      C2480   1.404       .  A
C2479      C2484   1.404       .  A
C2479      C2827   1.484       .  S
C2480      C2481   1.403       .  A
C2480      H2485   1.084       .  S
C2481      C2482   1.402       .  A
C2481      C2719   1.471       .  S
C2482      C2483   1.402       .  A
C2482      H2486   1.084       .  S
C2483      C2484   1.404       .  A
C2483      C2589   1.471       .  S
C2484      H2487   1.084       .  S
C2488      C2489   1.405       .  A
C2488      C2493   1.404       .  A
C2488      C2824   1.484       .  S
C2489      C2490   1.403       .  A
C2489      H2494   1.084       .  S
C2490      C2491   1.403       .  A
C2490      C2713   1.473       .  S
C2491      C2492   1.403       .  A
C2491      H2495   1.084       .  S
C2492      C2493   1.403       .  A
C2492      C2595   1.472       .  S
C2493      H2496   1.084       .  S
C2497      C2498   1.403       .  A
C2497      C2502   1.402       .  A
C2497      C2817   1.477       .  S
C2498      C2499   1.405       .  A
C2498      H2503   1.084       .  S
C2499      C2500   1.403       .  A
C2499      C2742   1.473       .  S
C2500      C2501   1.403       .  A
C2500      H2504   1.084       .  S
C2501      C2502   1.404       .  A
C2501      C2651   1.472       .  S
C2502      H2505   1.084       .  S
C2506      C2507   1.402       .  A
C2506      C2511   1.403       .  A
C2506      C2814   1.477       .  S
C2507      C2508   1.403       .  A
C2507      H2512   1.084       .  S
C2508      C2509   1.404       .  A
C2508      C2657   1.472       .  S
C2509      C2510   1.403       .  A
C2509      H2513   1.084       .  S
C2510      C2511   1.405       .  A
C2510      C2736   1.473       .  S
C2511      H2514   1.084       .  S
C2515      C2516   1.404       .  A
C2515      C2520   1.405       .  A
C2515      C2807   1.484       .  S
C2516      C2517   1.405       .  A
C2516      H2521   1.084       .  S
C2517      C2518   1.401       .  A
C2517      C2674   1.471       .  S
C2518      C2519   1.402       .  A
C2518      H2522   1.084       .  S
C2519      C2520   1.403       .  A
C2519      C2618   1.472       .  S
C2520      H2523   1.084       .  S
C2524      C2525   1.404       .  A
C2524      C2529   1.404       .  A
C2524      C2804   1.484       .  S
C2525      C2526   1.405       .  A
C2525      H2530   1.084       .  S
C2526      C2527   1.402       .  A
C2526      C2680   1.471       .  S
C2527      C2528   1.402       .  A
C2527      H2531   1.084       .  S
C2528      C2529   1.403       .  A
C2528      C2612   1.471       .  S
C2529      H2532   1.084       .  S
C2533      C2534   1.402       .  A
C2533      C2538   1.402       .  A
C2533      C2794   1.477       .  S
C2534      C2535   1.401       .  A
C2534      H2539   1.084       .  S
C2535      C2536   1.403       .  A
C2535      C2671   1.470       .  S
C2536      C2537   1.404       .  A
C2536      H2540   1.084       .  S
C2537      C2538   1.403       .  A
C2537      C2722   1.471       .  S
C2538      H2541   1.084       .  S
C2542      C2543   1.402       .  A
C2542      C2547   1.402       .  A
C2542      C2797   1.477       .  S
C2543      C2544   1.403       .  A
C2543      H2548   1.084       .  S
C2544      C2545   1.403       .  A
C2544      C2716   1.471       .  S
C2545      C2546   1.403       .  A
C2545      H2549   1.084       .  S
C2546      C2547   1.401       .  A
C2546      C2677   1.470       .  S
C2547      H2550   1.084       .  S
C2551      C2552   1.403       .  A
C2551      C2556   1.406       .  A
C2551      C2784   1.486       .  S
C2552      C2553   1.402       .  A
C2552      H2557   1.083       .  S
C2553      C2554   1.403       .  A
C2553      C2598   1.472       .  S
C2554      C2555   1.403       .  A
C2554      H2558   1.084       .  S
C2555      C2556   1.402       .  A
C2555      C2654   1.471       .  S
C2556      H2559   1.084       .  S
C2560      C2561   1.404       .  A
C2560      C2565   1.406       .  A
C2560      C2787   1.487       .  S
C2561      C2562   1.402       .  A
C2561      H2566   1.083       .  S
C2562      C2563   1.403       .  A
C2562      C2660   1.471       .  S
C2563      C2564   1.403       .  A
C2563      H2567   1.084       .  S
C2564      C2565   1.402       .  A
C2564      C2592   1.474       .  S
C2565      H2568   1.084       .  S
C2569      C2570   1.401       .  A
C2569      C2574   1.401       .  A
C2569      C2774   1.475       .  S
C2570      C2571   1.403       .  A
C2570      H2575   1.084       .  S
C2571      C2572   1.404       .  A
C2571      C2733   1.473       .  S
C2572      C2573   1.405       .  A
C2572      H2576   1.084       .  S
C2573      C2574   1.405       .  A
C2573      C2615   1.474       .  S
C2574      H2577   1.084       .  S
C2578      C2579   1.401       .  A
C2578      C2583   1.402       .  A
C2578      C2777   1.475       .  S
C2579      C2580   1.402       .  A
C2579      H2584   1.084       .  S
C2580      C2581   1.405       .  A
C2580      C2739   1.473       .  S
C2581      C2582   1.406       .  A
C2581      H2585   1.084       .  S
C2582      C2583   1.405       .  A
C2582      C2609   1.475       .  S
C2583      H2586   1.084       .  S
O2587     Zr2599   2.442       .  S
O2587      C2589   1.288       .  A
O2588     Zr2625   2.423       .  S
O2588      C2589   1.286       .  A
O2590     Zr2602   2.445       .  S
O2590      C2592   1.289       .  A
O2591      C2592   1.286       .  A
O2593     Zr2602   2.443       .  S
O2593      C2595   1.288       .  A
O2594      C2595   1.286       .  A
O2596     Zr2599   2.437       .  S
O2596      C2598   1.288       .  A
O2597     Zr2626   2.422       .  S
O2597      C2598   1.286       .  A
Zr2599     O2600   2.434       .  S
Zr2599     O2601   2.436       .  S
Zr2599     O2605   2.374       .  S
Zr2599     O2606   2.371       .  S
Zr2599     O2629   2.372       .  S
Zr2599     O2631   2.367       .  S
O2600      H2643   0.990       .  S
O2601      H2642   0.990       .  S
O2601      H2646   0.990       .  S
Zr2602     O2603   2.435       .  S
Zr2602     O2604   2.435       .  S
Zr2602     O2630   2.368       .  S
Zr2602     O2632   2.372       .  S
O2603      H2644   0.990       .  S
O2603      H2647   0.990       .  S
O2604      H2637   0.990       .  S
O2605     Zr2625   2.380       .  S
O2606     Zr2626   2.384       .  S
O2606      H2633   0.966       .  S
O2607     Zr2619   2.443       .  S
O2607      C2609   1.288       .  A
O2608     Zr2626   2.425       .  S
O2608      C2609   1.287       .  A
O2610     Zr2622   2.441       .  S
O2610      C2612   1.288       .  A
O2611      C2612   1.286       .  A
O2613     Zr2622   2.439       .  S
O2613      C2615   1.287       .  A
O2614      C2615   1.287       .  A
O2616     Zr2619   2.442       .  S
O2616      C2618   1.288       .  A
O2617     Zr2625   2.419       .  S
O2617      C2618   1.286       .  A
Zr2619     O2620   2.435       .  S
Zr2619     O2621   2.434       .  S
Zr2619     O2627   2.373       .  S
Zr2619     O2628   2.375       .  S
Zr2619     O2631   2.367       .  S
Zr2619     O2629   2.370       .  S
O2620      H2640   0.990       .  S
O2620      H2645   0.990       .  S
O2621      H2641   0.990       .  S
Zr2622     O2623   2.434       .  S
Zr2622     O2624   2.435       .  S
Zr2622     O2632   2.371       .  S
Zr2622     O2630   2.366       .  S
O2623      H2639   0.990       .  S
O2624      H2638   0.990       .  S
O2624      H2648   0.990       .  S
Zr2625     O2628   2.381       .  S
Zr2625     O2631   2.382       .  S
Zr2626     O2627   2.383       .  S
Zr2626     O2629   2.380       .  S
O2627      H2635   0.966       .  S
O2630      H2634   0.966       .  S
O2631      H2636   0.966       .  S
O2649      C2651   1.289       .  A
O2650      C2651   1.286       .  A
O2652     Zr2664   2.446       .  S
O2652      C2654   1.289       .  A
O2653     Zr2688   2.416       .  S
O2653      C2654   1.285       .  A
O2655      C2657   1.289       .  A
O2656     Zr2687   2.420       .  S
O2656      C2657   1.286       .  A
O2658     Zr2661   2.445       .  S
O2658      C2660   1.289       .  A
O2659      C2660   1.284       .  A
Zr2661     O2662   2.434       .  S
Zr2661     O2663   2.436       .  S
Zr2661     O2691   2.370       .  S
O2663      H2708   0.990       .  S
Zr2664     O2665   2.435       .  S
Zr2664     O2666   2.435       .  S
Zr2664     O2668   2.374       .  S
Zr2664     O2694   2.372       .  S
O2665      H2706   0.990       .  S
O2665      H2709   0.990       .  S
O2667     Zr2687   2.384       .  S
O2668     Zr2688   2.385       .  S
O2668      H2695   0.966       .  S
O2669     Zr2681   2.438       .  S
O2669      C2671   1.287       .  A
O2670      C2671   1.285       .  A
O2672      C2674   1.287       .  A
O2673     Zr2687   2.428       .  S
O2673      C2674   1.287       .  A
O2675     Zr2684   2.438       .  S
O2675      C2677   1.287       .  A
O2676     Zr2688   2.417       .  S
O2676      C2677   1.285       .  A
O2678      C2680   1.287       .  A
O2679      C2680   1.287       .  A
Zr2681     O2682   2.435       .  S
Zr2681     O2683   2.434       .  S
Zr2681     O2691   2.368       .  S
O2682      H2702   0.990       .  S
O2682      H2707   0.990       .  S
O2683      H2703   0.990       .  S
Zr2684     O2685   2.434       .  S
Zr2684     O2686   2.436       .  S
Zr2684     O2689   2.371       .  S
Zr2684     O2694   2.368       .  S
O2686      H2700   0.990       .  S
O2686      H2710   0.990       .  S
Zr2687     O2690   2.379       .  S
Zr2687     O2692   2.383       .  S
Zr2688     O2689   2.381       .  S
Zr2688     O2694   2.380       .  S
O2689      H2697   0.966       .  S
O2692      H2696   0.966       .  S
O2693      H2698   0.966       .  S
O2711     Zr2723   2.447       .  S
O2711      C2713   1.289       .  A
O2712      C2713   1.286       .  A
O2714      C2716   1.288       .  A
O2715     Zr2750   2.420       .  S
O2715      C2716   1.286       .  A
O2717     Zr2726   2.442       .  S
O2717      C2719   1.288       .  A
O2718     Zr2749   2.420       .  S
O2718      C2719   1.286       .  A
O2720      C2722   1.289       .  A
O2721      C2722   1.285       .  A
Zr2723     O2724   2.434       .  S
Zr2723     O2755   2.369       .  S
O2724      H2767   0.990       .  S
Zr2726     O2727   2.435       .  S
Zr2726     O2729   2.373       .  S
Zr2726     O2754   2.368       .  S
O2727      H2771   0.990       .  S
O2729     Zr2749   2.382       .  S
O2730     Zr2750   2.385       .  S
O2730      H2757   0.966       .  S
O2731      C2733   1.288       .  A
O2732      C2733   1.286       .  A
O2734     Zr2746   2.441       .  S
O2734      C2736   1.288       .  A
O2735     Zr2749   2.427       .  S
O2735      C2736   1.287       .  A
O2737      C2739   1.288       .  A
O2738     Zr2750   2.422       .  S
O2738      C2739   1.286       .  A
O2740     Zr2743   2.439       .  S
O2740      C2742   1.287       .  A
O2741      C2742   1.287       .  A
Zr2743     O2744   2.435       .  S
Zr2743     O2745   2.434       .  S
Zr2743     O2755   2.367       .  S
O2744      H2769   0.990   1_565  S
Zr2746     O2747   2.433       .  S
Zr2746     O2748   2.435       .  S
Zr2746     O2752   2.377       .  S
Zr2746     O2754   2.366       .  S
O2747      H2763   0.990       .  S
O2748      H2772   0.990   1_565  S
Zr2749     O2752   2.379       .  S
Zr2749     O2754   2.382       .  S
Zr2750     O2751   2.382       .  S
Zr2750     O2756   2.380       .  S
O2751      H2759   0.966       .  S
O2754      H2758   0.966       .  S
O2755      H2760   0.966       .  S
C2773      C2774   1.401       .  A
C2773      C2778   1.395       .  A
C2773      H2780   1.084       .  S
C2774      C2775   1.409       .  A
C2775      C2776   1.403       .  A
C2775     Br2782   1.918       .  S
C2776      C2777   1.404       .  A
C2776      H2781   1.083       .  S
C2777      C2778   1.408       .  A
C2778     Br2779   1.921       .  S
C2783      C2784   1.406       .  A
C2783      C2788   1.399       .  A
C2783      H2790   1.083       .  S
C2784      C2785   1.415       .  A
C2785      C2786   1.394       .  A
C2785     Br2792   1.925       .  S
C2786      C2787   1.404       .  A
C2786      H2791   1.084       .  S
C2787      C2788   1.414       .  A
C2788     Br2789   1.922       .  S
C2793      C2794   1.404       .  A
C2793      C2798   1.400       .  A
C2793      H2800   1.083       .  S
C2794      C2795   1.411       .  A
C2795      C2796   1.394       .  A
C2795     Br2802   1.923       .  S
C2796      C2797   1.402       .  A
C2796      H2801   1.084       .  S
C2797      C2798   1.410       .  A
C2798     Br2799   1.919       .  S
C2803      C2804   1.406       .  A
C2803      C2808   1.402       .  A
C2803      H2810   1.083       .  S
C2804      C2805   1.412       .  A
C2805      C2806   1.396       .  A
C2805     Br2812   1.923       .  S
C2806      C2807   1.404       .  A
C2806      H2811   1.084       .  S
C2807      C2808   1.412       .  A
C2808     Br2809   1.920       .  S
C2813      C2814   1.404       .  A
C2813      C2818   1.402       .  A
C2813      H2820   1.083       .  S
C2814      C2815   1.409       .  A
C2815      C2816   1.398       .  A
C2815     Br2822   1.921       .  S
C2816      C2817   1.402       .  A
C2816      H2821   1.084       .  S
C2817      C2818   1.408       .  A
C2818     Br2819   1.918       .  S
C2823      C2824   1.404       .  A
C2823      C2828   1.397       .  A
C2823      H2830   1.084       .  S
C2824      C2825   1.412       .  A
C2825      C2826   1.401       .  A
C2825     Br2832   1.920       .  S
C2826      C2827   1.405       .  A
C2826      H2831   1.083       .  S
C2827      C2828   1.412       .  A
C2828     Br2829   1.922       .  S
