geometry optimzed in LAMMPS
_audit_creation_date              2020-12-01 
_audit_creation_method            'lammps2cif' 
_symmetry_space_group_name_H-M    'P1' 
_symmetry_Int_Tables_number       1 
_symmetry_cell_setting            triclinic 
loop_ 
_symmetry_equiv_pos_as_xyz 
  x,y,z 
_cell_length_a                    36.75755804 
_cell_length_b                    36.704665073905716 
_cell_length_c                    36.749946250894126 
_cell_angle_alpha                 89.8085822207508 
_cell_angle_beta                  90.03826408243067 
_cell_angle_gamma                 89.39806319682226 
loop_ 
_atom_site_label 
_atom_site_type_symbol 
_atom_site_fract_x 
_atom_site_fract_y 
_atom_site_fract_z 
_atom_site_charge 
O1          O  0.46041208  0.53410514  0.60348130    -0.74500
O2          O  0.54137768  0.46874962  0.60691297    -0.74600
O3          O  0.46894828  0.46070631  0.60649835    -0.74600
O4          O  0.53246429  0.54144347  0.60366747    -0.74700
O5          O  0.53377980  0.54315253  0.66435539    -0.74600
O6          O  0.46650990  0.46349575  0.66711512    -0.74600
O7          O  0.54003755  0.46904286  0.66763657    -0.74600
O8          O  0.46003970  0.53749622  0.66412560    -0.74600
Ni9        Ni  0.50072063  0.50107675  0.60309013     1.25400
Ni10       Ni  0.50003063  0.50335932  0.66811088     1.25400
C11         C  0.44780608  0.54765256  0.63299085     0.87600
C12         C  0.55405965  0.45810063  0.63762230     0.87600
C13         C  0.45756442  0.44850081  0.63700740     0.87600
C14         C  0.54347454  0.55577937  0.63326617     0.87800
O15         O  0.71519820  0.45846635  0.38548347    -0.74500
O16         O  0.70773929  0.54163685  0.44629445    -0.74600
O17         O  0.70860450  0.53055219  0.37404637    -0.74600
O18         O  0.71496796  0.46910740  0.45742680    -0.74700
O19         O  0.77564669  0.47201726  0.45588525    -0.74600
O20         O  0.76875372  0.53820055  0.37526633    -0.74600
O21         O  0.76821420  0.54577205  0.44880243    -0.74600
O22         O  0.77543750  0.46471767  0.38221014    -0.74600
Ni23       Ni  0.70956985  0.49983401  0.41592981     1.25400
Ni24       Ni  0.77432247  0.50539851  0.41561749     1.25400
C25         C  0.74615154  0.44817055  0.37324620     0.87600
C26         C  0.73638361  0.55751324  0.45755028     0.87600
C27         C  0.73753020  0.54465369  0.36102999     0.87600
C28         C  0.74626617  0.45937014  0.46936955     0.87800
O29         O  0.45382375  0.75441997  0.43233614    -0.74500
O30         O  0.53109536  0.75263752  0.36154359    -0.74600
O31         O  0.45719526  0.74657373  0.35895301    -0.74600
O32         O  0.52752158  0.76093863  0.43466254    -0.74700
O33         O  0.53211912  0.70061680  0.44203238    -0.74600
O34         O  0.46316834  0.68641502  0.36593134    -0.74600
O35         O  0.53647085  0.69258203  0.36985053    -0.74600
O36         O  0.45912908  0.69401217  0.43799771    -0.74600
Ni37       Ni  0.49219547  0.75590397  0.39657417     1.25400
Ni38       Ni  0.49794215  0.69135357  0.40414635     1.25400
C39         C  0.44345980  0.72410954  0.44616851     0.87600
C40         C  0.54709097  0.72213557  0.35495470     0.87600
C41         C  0.44799963  0.71405281  0.35065091     0.87600
C42         C  0.54143300  0.73298096  0.45050258     0.87800
O43         O  0.30143134  0.46061779  0.45017590    -0.74500
O44         O  0.29835718  0.52980628  0.37270316    -0.74600
O45         O  0.29517468  0.53310286  0.44660505    -0.74600
O46         O  0.30462900  0.45748556  0.37661139    -0.74700
O47         O  0.24424457  0.45222369  0.37388698    -0.74600
O48         O  0.23464408  0.52897852  0.44458057    -0.74600
O49         O  0.23784582  0.52590217  0.37019972    -0.74600
O50         O  0.24106657  0.45504914  0.44782194    -0.74600
Ni51       Ni  0.30193442  0.49547016  0.41163166     1.30200
Ni52       Ni  0.23717002  0.49042264  0.40906377     1.25400
C53         C  0.27194898  0.44661090  0.46195415     0.87600
C54         C  0.26791640  0.53840310  0.35793376     0.87600
C55         C  0.26363335  0.54286739  0.45782387     0.87600
C56         C  0.27619592  0.44290482  0.36317286     0.87800
O57         O  0.47081713  0.29408278  0.37451025    -0.74500
O58         O  0.54692898  0.30100068  0.44426057    -0.74600
O59         O  0.54398547  0.29696458  0.37104385    -0.74600
O60         O  0.47305776  0.29764760  0.44703823    -0.74700
O61         O  0.47564282  0.23694293  0.45024099    -0.74600
O62         O  0.54895156  0.23644915  0.37545076    -0.74600
O63         O  0.54975861  0.24047360  0.44934479    -0.74600
O64         O  0.47455595  0.23338873  0.37617982    -0.74600
Ni65       Ni  0.50868246  0.29948505  0.40918230     1.25400
Ni66       Ni  0.51238129  0.23454125  0.41292618     1.25400
C67         C  0.45973233  0.26290926  0.36415285     0.87600
C68         C  0.56115830  0.27218136  0.45815735     0.87600
C69         C  0.55821095  0.26670758  0.36081558     0.87600
C70         C  0.46182843  0.26748473  0.46032363     0.87800
O71         O  0.53343062  0.53983745  0.20357012    -0.74500
O72         O  0.46580971  0.46149092  0.20609909    -0.74600
O73         O  0.53836340  0.46681845  0.21109099    -0.74600
O74         O  0.46083453  0.53512589  0.19866362    -0.74700
O75         O  0.46520191  0.53010044  0.13829276    -0.74600
O76         O  0.54344549  0.46026943  0.15103419    -0.74600
O77         O  0.46939185  0.45596929  0.14578472    -0.74600
O78         O  0.53931088  0.53420373  0.14348668    -0.74600
Ni79       Ni  0.49940855  0.50102044  0.20684844     1.25400
Ni80       Ni  0.50446964  0.49493504  0.14236602     1.25400
C81         C  0.54748753  0.55012676  0.17342100     0.87600
C82         C  0.45681382  0.44538223  0.17661673     0.87600
C83         C  0.55341631  0.45184814  0.18349581     0.87600
C84         C  0.45060464  0.54432840  0.16665282     0.87800
C85         C  0.69396815  0.71468036  0.60774104     0.86400
C86         C  0.71678295  0.69005820  0.58227330    -0.53900
C87         C  0.69655538  0.66951655  0.55909445     0.09300
C88         C  0.65543717  0.67502194  0.56384669     0.20300
C89         C  0.66855388  0.73685578  0.58239159    -0.54600
C90         C  0.64873295  0.71590735  0.55947893     0.09400
C91         C  0.66822762  0.68781274  0.62738607    -0.54100
C92         C  0.64802818  0.66721860  0.60417896     0.10000
H93         H  0.74631201  0.68970679  0.58212382     0.14500
H94         H  0.63896658  0.65827243  0.54501766     0.00200
H95         H  0.66639196  0.76638656  0.58262617     0.14800
H96         H  0.66487691  0.68540247  0.65648779     0.14600
C97         C  0.78816875  0.80998158  0.69542759     0.86400
C98         C  0.76618279  0.83765548  0.71845370    -0.53900
C99         C  0.78708946  0.85844592  0.74078721     0.09300
C100        C  0.82783946  0.84998942  0.73786313     0.20300
C101        C  0.81668684  0.83331496  0.67510930    -0.54600
C102        C  0.83740646  0.85397715  0.69755500     0.09400
C103        C  0.81113891  0.78796810  0.72333965    -0.54100
C104        C  0.83153802  0.80915575  0.74581628     0.10000
H105        H  0.73675383  0.84025014  0.71730831     0.14500
H106        H  0.84485353  0.86711732  0.75584126     0.00200
H107        H  0.82240345  0.83246428  0.64630583     0.14800
H108        H  0.81073716  0.75847166  0.72545383     0.14600
C109        C  0.71195889  0.30237857  0.61860305     0.86400
C110        C  0.68491753  0.32815074  0.63830019    -0.53900
C111        C  0.66528274  0.35012682  0.61529832     0.09300
C112        C  0.67434724  0.34440500  0.57500830     0.20300
C113        C  0.68848573  0.28156701  0.59073831    -0.54600
C114        C  0.66869652  0.30369518  0.56792855     0.09400
C115        C  0.73519504  0.32849725  0.59517528    -0.54100
C116        C  0.71526640  0.35005233  0.57263648     0.10000
H117        H  0.68265399  0.32980330  0.66769411     0.14500
H118        H  0.65851412  0.36251077  0.55645541     0.00200
H119        H  0.68817982  0.25206151  0.58898425     0.14800
H120        H  0.76439614  0.33129859  0.59586830     0.14600
C121        C  0.79225540  0.20507378  0.71992826     0.86400
C122        C  0.82178620  0.22475379  0.74248368    -0.53900
C123        C  0.84296979  0.20174964  0.76306354     0.09300
C124        C  0.83205693  0.16180755  0.76011370     0.20300
C125        C  0.81321015  0.17553371  0.69840872    -0.54600
C126        C  0.83390414  0.15289147  0.71959049     0.09400
C127        C  0.77047515  0.18362124  0.74876414    -0.54100
C128        C  0.79161043  0.16110335  0.76956796     0.10000
H129        H  0.82623745  0.25391434  0.74120319     0.14500
H130        H  0.84899458  0.14346066  0.77735650     0.00200
H131        H  0.81188507  0.17293376  0.66900771     0.14800
H132        H  0.74158103  0.18615413  0.75374807     0.14600
C133        C  0.29160041  0.70422154  0.60483547     0.86400
C134        C  0.31455216  0.72258392  0.57455568    -0.53900
C135        C  0.33375882  0.69857153  0.55365399     0.09300
C136        C  0.32881235  0.65878526  0.56489539     0.20300
C137        C  0.26798908  0.67661893  0.58373483    -0.54600
C138        C  0.28783565  0.65252128  0.56343495     0.09400
C139        C  0.31935235  0.68061437  0.62638811    -0.54100
C140        C  0.33893824  0.65717374  0.60515142     0.10000
H141        H  0.31531965  0.75142385  0.56865138     0.14500
H142        H  0.34476136  0.63910991  0.54833682     0.00200
H143        H  0.23850199  0.67589533  0.58515671     0.14800
H144        H  0.32367662  0.68292566  0.65551693     0.14600
C145        C  0.19830944  0.80064849  0.69463735     0.86400
C146        C  0.16749358  0.78289513  0.71712703    -0.53900
C147        C  0.14539556  0.80734408  0.73460799     0.09300
C148        C  0.15602792  0.84714157  0.72800569     0.20300
C149        C  0.17783282  0.82724691  0.66897136    -0.54600
C150        C  0.15618270  0.85166686  0.68657230     0.09400
C151        C  0.21820664  0.82499036  0.72240610    -0.54100
C152        C  0.19597474  0.84944647  0.73978310     0.10000
H153        H  0.16244385  0.75401257  0.71907224     0.14500
H154        H  0.13833122  0.86701935  0.74230018     0.00200
H155        H  0.17957675  0.82624416  0.63949567     0.14800
H156        H  0.24719978  0.82291034  0.72781872     0.14600
C157        C  0.70804187  0.69863047  0.20545805     0.86400
C158        C  0.68106648  0.67679478  0.18172757    -0.53900
C159        C  0.65908203  0.65422457  0.20135188     0.09300
C160        C  0.66631410  0.65509569  0.24231088     0.20300
C161        C  0.68331466  0.71806620  0.23383827    -0.54600
C162        C  0.66191554  0.69498665  0.25307336     0.09400
C163        C  0.72889988  0.66966805  0.22800387    -0.54100
C164        C  0.70689029  0.64660764  0.24681852     0.10000
H165        H  0.67874181  0.68000105  0.15244290     0.14500
H166        H  0.64832507  0.63681372  0.25811944     0.00200
H167        H  0.68228774  0.74688559  0.23955584     0.14800
H168        H  0.75838520  0.66772773  0.22907139     0.14600
C169        C  0.79859955  0.79180121  0.11166014     0.86400
C170        C  0.82344848  0.81954223  0.13077589    -0.53900
C171        C  0.83839367  0.84473185  0.10792374     0.09300
C172        C  0.82788093  0.83903374  0.06785617     0.20300
C173        C  0.77084653  0.81486561  0.08980230    -0.54600
C174        C  0.78623267  0.83951068  0.06716389     0.09400
C175        C  0.82354112  0.77452584  0.08225217    -0.54100
C176        C  0.83874979  0.79945932  0.05920952     0.10000
H177        H  0.82829399  0.81946723  0.15991752     0.14500
H178        H  0.84043316  0.85896543  0.04920769     0.00200
H179        H  0.74156356  0.81167919  0.09183340     0.14800
H180        H  0.82915612  0.74570940  0.07932587     0.14600
C181        C  0.30628074  0.29081585  0.61623299     0.86400
C182        C  0.32966919  0.26952919  0.58829527    -0.53900
C183        C  0.34965186  0.29139850  0.56599331     0.09300
C184        C  0.34522481  0.33203069  0.57396125     0.20300
C185        C  0.33412027  0.31475996  0.63673722    -0.54600
C186        C  0.35445233  0.33595957  0.61424817     0.09400
C187        C  0.28385049  0.31853736  0.59336897    -0.54100
C188        C  0.30444933  0.34007166  0.57145524     0.10000
H189        H  0.33018917  0.24002387  0.58627452     0.14500
H190        H  0.36185263  0.34956647  0.55589087     0.00200
H191        H  0.33831527  0.31545699  0.66582163     0.14800
H192        H  0.25443471  0.32122254  0.59483311     0.14600
C193        C  0.20510778  0.20179968  0.70351613     0.86400
C194        C  0.22405010  0.17170508  0.72645160    -0.53900
C195        C  0.20101523  0.15298389  0.74860453     0.09300
C196        C  0.16141427  0.16612675  0.74631296     0.20300
C197        C  0.17423107  0.18161517  0.68339360    -0.54600
C198        C  0.15156532  0.16297527  0.70596117     0.09400
C199        C  0.18476771  0.22597981  0.73137054    -0.54100
C200        C  0.16235035  0.20708731  0.75394070     0.10000
H201        H  0.25293947  0.16542205  0.72481398     0.14500
H202        H  0.14293845  0.15112589  0.76483467     0.00200
H203        H  0.16968722  0.18158447  0.65436556     0.14800
H204        H  0.18818926  0.25525217  0.73338060     0.14600
C205        C  0.28821013  0.69102564  0.19855387     0.86400
C206        C  0.31303501  0.66787000  0.17351232    -0.53900
C207        C  0.33504255  0.64402604  0.19183635     0.09300
C208        C  0.33068417  0.64524139  0.23306840     0.20300
C209        C  0.26781174  0.66315160  0.22250082    -0.54600
C210        C  0.29019512  0.63915932  0.24052528     0.09400
C211        C  0.31502264  0.70915992  0.22552496    -0.54100
C212        C  0.33718784  0.68495216  0.24341150     0.10000
H213        H  0.31399014  0.67100945  0.14413739     0.14500
H214        H  0.34918208  0.62576302  0.24729295     0.00200
H215        H  0.23840209  0.66272069  0.22503114     0.14800
H216        H  0.31612166  0.73788894  0.23158388     0.14600
C217        C  0.19437598  0.78632465  0.10662928     0.86400
C218        C  0.16585281  0.80915274  0.12779869    -0.53900
C219        C  0.14606409  0.83254833  0.10636215     0.09300
C220        C  0.15668293  0.83135567  0.06619881     0.20300
C221        C  0.17217198  0.76772377  0.07600025    -0.54600
C222        C  0.15267114  0.79163325  0.05503550     0.09400
C223        C  0.21756404  0.81463173  0.08583491    -0.54100
C224        C  0.19743009  0.83835475  0.06517797     0.10000
H225        H  0.16134635  0.80639499  0.15686164     0.14500
H226        H  0.14086126  0.85065752  0.04883123     0.00200
H227        H  0.17244453  0.73897274  0.06974422     0.14800
H228        H  0.24701933  0.81587461  0.08744237     0.14600
C229        C  0.71704267  0.30151569  0.21128600     0.86400
C230        C  0.73891549  0.32398310  0.23935511    -0.53900
C231        C  0.71749589  0.34241279  0.26358320     0.09300
C232        C  0.67664824  0.33752882  0.25724944     0.20300
C233        C  0.69222114  0.27725873  0.23504002    -0.54600
C234        C  0.67071605  0.29635930  0.25853550     0.09400
C235        C  0.69099519  0.32954169  0.19343126    -0.54100
C236        C  0.66963088  0.34858674  0.21735877     0.10000
H237        H  0.76825321  0.32479316  0.24138552     0.14500
H238        H  0.66013475  0.35275929  0.27737219     0.00200
H239        H  0.69076382  0.24784528  0.23246203     0.14800
H240        H  0.68870788  0.33228887  0.16416257     0.14600
C241        C  0.79727404  0.20530553  0.10977040     0.86400
C242        C  0.77506724  0.17743336  0.08738839    -0.53900
C243        C  0.79591054  0.15204398  0.06994375     0.09300
C244        C  0.83688937  0.15692936  0.07569722     0.20300
C245        C  0.82148558  0.18158553  0.13491125    -0.54600
C246        C  0.84239626  0.15677655  0.11704275     0.09400
C247        C  0.82384991  0.22167614  0.08162372    -0.54100
C248        C  0.84509248  0.19637846  0.06382081     0.10000
H249        H  0.74577949  0.17665288  0.08516743     0.14500
H250        H  0.85267706  0.13566574  0.06131819     0.00200
H251        H  0.82255183  0.18466778  0.16427577     0.14800
H252        H  0.82637476  0.25080303  0.07729027     0.14600
C253        C  0.30391651  0.28739095  0.20829294     0.86400
C254        C  0.32861279  0.26513275  0.23447389    -0.53900
C255        C  0.35143292  0.28601427  0.25473920     0.09300
C256        C  0.34804782  0.32680540  0.24695719     0.20300
C257        C  0.28473134  0.31576481  0.23325080    -0.54600
C258        C  0.30803388  0.33624294  0.25317315     0.09400
C259        C  0.33058659  0.31083664  0.18540952    -0.54100
C260        C  0.35395843  0.33122972  0.20596451     0.10000
H261        H  0.32709079  0.23576563  0.23764694     0.14500
H262        H  0.36666549  0.34330223  0.26389875     0.00200
H263        H  0.25580276  0.32088980  0.23496967     0.14800
H264        H  0.33094931  0.31108292  0.15588495     0.14600
C265        C  0.20762710  0.19784933  0.11505344     0.86400
C266        C  0.18064567  0.17205609  0.13437474    -0.53900
C267        C  0.15583807  0.15645546  0.11158551     0.09300
C268        C  0.16069620  0.16752671  0.07154511     0.20300
C269        C  0.22506287  0.17358541  0.08516679    -0.54600
C270        C  0.20048282  0.15773217  0.06230193     0.09400
C271        C  0.18360268  0.22516958  0.09349441    -0.54100
C272        C  0.15907724  0.20929674  0.07101809     0.10000
H273        H  0.18111396  0.16674622  0.16345156     0.14500
H274        H  0.14049757  0.15457292  0.05349207     0.00200
H275        H  0.25392347  0.16915082  0.08150604     0.14800
H276        H  0.18622297  0.25454793  0.09544475     0.14600
O277        O  0.25584225  0.95850464  0.94595033    -0.74500
O278        O  0.25620627  0.03052216  0.86942331    -0.74600
O279        O  0.25703433  0.03288863  0.94361828    -0.74600
O280        O  0.25474766  0.95626204  0.87177240    -0.74700
O281        O  0.19405168  0.95761011  0.87396722    -0.74600
O282        O  0.19639948  0.03529747  0.94191952    -0.74600
O283        O  0.19550941  0.03024137  0.86895678    -0.74600
O284        O  0.19522027  0.96219467  0.94764224    -0.74600
Ni285      Ni  0.25826572  0.99440920  0.90773709     1.25400
Ni286      Ni  0.19326406  0.99629235  0.90827060     1.25400
C287        C  0.22530990  0.94906508  0.95969732     0.87600
C288        C  0.22571739  0.04173396  0.85627375     0.87600
C289        C  0.22670830  0.04718785  0.95385114     0.87600
C290        C  0.22372213  0.94520873  0.86048335     0.87800
O291        O  0.96961532  0.26111927  0.87318784    -0.74500
O292        O  0.04045909  0.27171010  0.94940107    -0.74600
O293        O  0.04338422  0.26990811  0.87500980    -0.74600
O294        O  0.96669946  0.26199640  0.94690092    -0.74700
O295        O  0.97538934  0.20180966  0.94702579    -0.74600
O296        O  0.05182561  0.20969439  0.87833554    -0.74600
O297        O  0.04785623  0.21127798  0.95116080    -0.74600
O298        O  0.97897968  0.20101695  0.87378687    -0.74600
Ni299      Ni  0.00479881  0.26847724  0.91104288     1.25400
Ni300      Ni  0.01375787  0.20393819  0.91259007     1.25400
C301        C  0.96242034  0.22926729  0.86116105     0.87600
C302        C  0.05566704  0.24308415  0.96278940     0.87600
C303        C  0.06038358  0.24072461  0.86532080     0.87600
C304        C  0.95849317  0.23009310  0.95861854     0.87800
O305        O  0.03821709  0.03242044  0.16975759    -0.74500
O306        O  0.96011366  0.96239273  0.17026943    -0.74600
O307        O  0.03367960  0.95826816  0.16595839    -0.74600
O308        O  0.96416961  0.03644087  0.17493450    -0.74700
O309        O  0.96150110  0.04119664  0.11437945    -0.74600
O310        O  0.02867177  0.96160997  0.10555052    -0.74600
O311        O  0.95601769  0.96838635  0.10997461    -0.74600
O312        O  0.03414558  0.03542400  0.10922952    -0.74600
Ni313      Ni  0.99926355  0.99728367  0.17249891     1.25400
Ni314      Ni  0.99509998  0.00176513  0.10772373     1.25400
C315        C  0.04840193  0.04585443  0.13912249     0.87600
C316        C  0.94517346  0.95417759  0.13980527     0.87600
C317        C  0.04164843  0.94632206  0.13423116     0.87600
C318        C  0.95142419  0.05148468  0.14606336     0.87800
O319        O  0.72639155  0.96425591  0.87380368    -0.74500
O320        O  0.72650517  0.03233968  0.95401204    -0.74600
O321        O  0.72945275  0.03770127  0.88072908    -0.74600
O322        O  0.72238592  0.95839566  0.94820164    -0.74700
O323        O  0.78296897  0.95296196  0.94873845    -0.74600
O324        O  0.78994869  0.03543027  0.88595190    -0.74600
O325        O  0.78677016  0.02538300  0.95803794    -0.74600
O326        O  0.78705751  0.96314405  0.87561640    -0.74600
Ni327      Ni  0.72387809  0.99810999  0.91412142     1.25400
Ni328      Ni  0.78875381  0.99391256  0.91715824     1.25400
C329        C  0.75716895  0.95405566  0.86051924     0.87600
C330        C  0.75708823  0.04017198  0.96884923     0.87600
C331        C  0.76091457  0.05023819  0.87322812     0.87600
C332        C  0.75158955  0.94306819  0.95985346     0.87800
O333        O  0.95633482  0.04253979  0.64917493    -0.74500
O334        O  0.03480435  0.97433666  0.63553639    -0.74600
O335        O  0.96132444  0.96909494  0.64135871    -0.74600
O336        O  0.02983940  0.04783264  0.64419961    -0.74700
O337        O  0.03218362  0.04232742  0.70467355    -0.74600
O338        O  0.96879730  0.96160626  0.70114956    -0.74600
O339        O  0.04107182  0.96959464  0.69583810    -0.74600
O340        O  0.95973374  0.03375709  0.70919645    -0.74600
Ni341      Ni  0.99545130  0.00872536  0.64029855     1.25400
Ni342      Ni  0.00071116  0.00163131  0.70478003     1.25400
C343        C  0.94473442  0.04882158  0.68142545     0.87600
C344        C  0.05055896  0.96064840  0.66354006     0.87600
C345        C  0.95413015  0.95224246  0.67113102     0.87600
C346        C  0.04154607  0.05837530  0.67529595     0.87800
O347        O  0.96169725  0.80777111  0.93839154    -0.74500
O348        O  0.02655644  0.80886662  0.85826913    -0.74600
O349        O  0.95386718  0.80974555  0.86612482    -0.74600
O350        O  0.03499294  0.80635856  0.93094971    -0.74700
O351        O  0.03337876  0.74559242  0.93123018    -0.74600
O352        O  0.95433883  0.74906353  0.86272749    -0.74600
O353        O  0.02824688  0.74808719  0.85738400    -0.74600
O354        O  0.95965215  0.74703106  0.93659590    -0.74600
Ni355      Ni  0.99440416  0.81025289  0.89855584     1.25400
Ni356      Ni  0.99394950  0.74515593  0.89694882     1.25400
C357        C  0.94894171  0.77758490  0.94986419     0.87600
C358        C  0.03808655  0.77898499  0.84450972     0.87600
C359        C  0.94066091  0.78010386  0.85377992     0.87600
C360        C  0.04740241  0.77549980  0.94194734     0.87800
C361        C  0.13476130  0.22968190  0.04596339    -0.05600
C362        C  0.09826793  0.23556939  0.05550805    -0.33000
C363        C  0.07221094  0.24347080  0.02867210     0.36200
C364        C  0.08284013  0.24592363  0.99199448    -0.05900
C365        C  0.11992780  0.24428995  0.98314473    -0.32900
C366        C  0.14596581  0.23682754  0.01010663     0.36200
H367        H  0.08961611  0.23168665  0.08338519     0.16500
O368        O  0.03613821  0.24534417  0.03805773    -0.60400
H369        H  0.12845260  0.24644969  0.95500144     0.16500
O370        O  0.18191095  0.23342989  0.00060942    -0.60500
H371        H  0.19244019  0.25771549  0.00505806     0.43500
H372        H  0.03071074  0.27169810  0.04088822     0.43500
C373        C  0.22524729  0.07833891  0.97917939    -0.05600
C374        C  0.19785684  0.10459145  0.97371131    -0.33000
C375        C  0.19097438  0.13174123  0.99936660     0.36200
C376        C  0.21100442  0.13251610  0.03211216    -0.05900
C377        C  0.24007689  0.10747347  0.03661250    -0.32900
C378        C  0.24753772  0.08076915  0.01018780     0.36200
H379        H  0.18101644  0.10369357  0.94950348     0.16500
O380        O  0.16390371  0.15677782  0.99236413    -0.60400
H381        H  0.25604334  0.10742851  0.06138399     0.16500
O382        O  0.27466483  0.05557115  0.01634267    -0.60500
H383        H  0.29726579  0.06738117  0.00781918     0.43500
H384        H  0.17154208  0.16995151  0.97010305     0.43500
C385        C  0.07532181  0.07542272  0.13723396    -0.05600
C386        C  0.06576423  0.10692914  0.11774661    -0.33000
C387        C  0.09128747  0.13401603  0.11071270     0.36200
C388        C  0.12735227  0.13016044  0.12332662    -0.05900
C389        C  0.13661846  0.09923422  0.14430772    -0.32900
C390        C  0.11082271  0.07191566  0.15128665     0.36200
H391        H  0.03836867  0.11024888  0.10718314     0.16500
O392        O  0.08044812  0.16452499  0.09191797    -0.60400
H393        H  0.16429726  0.09544431  0.15383477     0.16500
O394        O  0.12130503  0.04080955  0.16936618    -0.60500
H395        H  0.11689301  0.04604184  0.19544299     0.43500
H396        H  0.07544265  0.15626162  0.06675431     0.43500
C397        C  0.27891750  0.26274487  0.18550249    -0.05600
C398        C  0.24066745  0.26331148  0.18924293    -0.33000
C399        C  0.21826024  0.24134995  0.16786844     0.36200
C400        C  0.23323273  0.21786311  0.14133632    -0.05900
C401        C  0.27153878  0.21550681  0.13910857    -0.32900
C402        C  0.29403449  0.23744956  0.16070480     0.36200
H403        H  0.22701818  0.28029966  0.20881651     0.16500
O404        O  0.18125411  0.24408849  0.17233202    -0.60400
H405        H  0.28493357  0.19718406  0.12051616     0.16500
O406        O  0.33108248  0.23356857  0.15765497    -0.60500
H407        H  0.33752438  0.24560102  0.13437525     0.43500
H408        H  0.17578504  0.22937816  0.19429055     0.43500
C409        C  0.78074279  0.12220228  0.04735690    -0.05600
C410        C  0.75610715  0.13008944  0.01902506    -0.33000
C411        C  0.74559232  0.10279987  0.99448104     0.36200
C412        C  0.75964099  0.06714467  0.99834336    -0.05900
C413        C  0.78227906  0.05891227  0.02793942    -0.32900
C414        C  0.79292700  0.08600858  0.05218120     0.36200
H415        H  0.74662984  0.15781728  0.01470660     0.16500
O416        O  0.72451680  0.11199926  0.96498731    -0.60400
H417        H  0.79312725  0.03153044  0.03138056     0.16500
O418        O  0.81524433  0.07672019  0.08062948    -0.60500
H419        H  0.83924872  0.07096676  0.06961224     0.43500
H420        H  0.69907217  0.11024587  0.97366809     0.43500
C421        C  0.92988718  0.22439344  0.98644281    -0.05600
C422        C  0.93358990  0.19400763  0.00929606    -0.33000
C423        C  0.90653143  0.18451807  0.03401563     0.36200
C424        C  0.87455114  0.20606510  0.03722228    -0.05900
C425        C  0.87106685  0.23715659  0.01466349    -0.32900
C426        C  0.89841818  0.24638792  0.98946585     0.36200
H427        H  0.95782712  0.17697785  0.00792565     0.16500
O428        O  0.91276364  0.15477094  0.05582118    -0.60400
H429        H  0.84670831  0.25394635  0.01586689     0.16500
O430        O  0.89318068  0.27565739  0.96671149    -0.60500
H431        H  0.90076674  0.29714030  0.98100418     0.43500
H432        H  0.91305659  0.13340292  0.03933836     0.43500
C433        C  0.86960280  0.13299144  0.13498120    -0.05600
C434        C  0.85993028  0.09752458  0.14481379    -0.33000
C435        C  0.88676660  0.07101797  0.15124742     0.36200
C436        C  0.92366489  0.08028034  0.14862771    -0.05900
C437        C  0.93332662  0.11669449  0.14298164    -0.32900
C438        C  0.90631689  0.14333494  0.13645102     0.36200
H439        H  0.83158382  0.08984308  0.14526150     0.16500
O440        O  0.87673155  0.03552196  0.15666837    -0.60400
H441        H  0.96178419  0.12404687  0.14179423     0.16500
O442        O  0.91550948  0.17921727  0.13096727    -0.60500
H443        H  0.93754954  0.17941539  0.11542689     0.43500
H444        H  0.87901224  0.03138652  0.18324276     0.43500
C445        C  0.73820031  0.27947378  0.18267455    -0.05600
C446        C  0.77628653  0.28121904  0.17889286    -0.33000
C447        C  0.79501431  0.25889942  0.15406124     0.36200
C448        C  0.77605129  0.23382801  0.13207547    -0.05900
C449        C  0.73777099  0.23421644  0.13399805    -0.32900
C450        C  0.71909485  0.25671784  0.15848882     0.36200
H451        H  0.79229080  0.29958302  0.19497841     0.16500
O452        O  0.83217672  0.26154744  0.15173376    -0.60400
H453        H  0.72136936  0.21678444  0.11738309     0.16500
O454        O  0.68181120  0.25514590  0.15951889    -0.60500
H455        H  0.67329348  0.26982672  0.13842485     0.43500
H456        H  0.84182556  0.24985967  0.17415576     0.43500
C457        C  0.07781820  0.77481984  0.96801126    -0.05600
C458        C  0.07607374  0.75254175  0.99908415    -0.33000
C459        C  0.10186362  0.75585791  0.02697184     0.36200
C460        C  0.12984435  0.78153053  0.02365905    -0.05900
C461        C  0.13304771  0.80175933  0.99141029    -0.32900
C462        C  0.10719418  0.79871025  0.96377007     0.36200
H463        H  0.05348474  0.73415119  0.00271847     0.16500
O464        O  0.09753455  0.73642857  0.05858042    -0.60400
H465        H  0.15489198  0.82113324  0.98826177     0.16500
O466        O  0.11078227  0.81918572  0.93269025    -0.60500
H467        H  0.10245599  0.84406703  0.93937734     0.43500
H468        H  0.10916236  0.71241195  0.05388495     0.43500
C469        C  0.22412306  0.92257839  0.98984303    -0.05600
C470        C  0.24003306  0.88787968  0.98585017    -0.33000
C471        C  0.23380456  0.86050079  0.01181148     0.36200
C472        C  0.21196452  0.86801358  0.04236393    -0.05900
C473        C  0.19784865  0.90329169  0.04728072    -0.32900
C474        C  0.20363350  0.93043376  0.02121670     0.36200
H475        H  0.25530857  0.88135023  0.96147880     0.16500
O476        O  0.24604324  0.82572720  0.00526205    -0.60400
H477        H  0.18071269  0.90928454  0.07055140     0.16500
O478        O  0.18880812  0.96450160  0.02635359    -0.60500
H479        H  0.16308104  0.96259592  0.01849197     0.43500
H480        H  0.27037163  0.82426263  0.01686752     0.43500
C481        C  0.06588485  0.91424853  0.13043410    -0.05600
C482        C  0.09530592  0.90899381  0.15440046    -0.33000
C483        C  0.12068008  0.88074040  0.14864572     0.36200
C484        C  0.11642339  0.85715877  0.11883804    -0.05900
C485        C  0.08531476  0.86065671  0.09688519    -0.32900
C486        C  0.06040851  0.88908793  0.10218922     0.36200
H487        H  0.09968595  0.92793125  0.17648751     0.16500
O488        O  0.15098132  0.87842116  0.17033076    -0.60400
H489        H  0.08103482  0.84208870  0.07444437     0.16500
O490        O  0.03063836  0.89190956  0.07974967    -0.60500
H491        H  0.03980215  0.90290817  0.05687950     0.43500
H492        H  0.14304812  0.86505169  0.19237693     0.43500
C493        C  0.26253071  0.71616518  0.17667912    -0.05600
C494        C  0.26359256  0.75450743  0.17904138    -0.33000
C495        C  0.24107693  0.77678507  0.15743092     0.36200
C496        C  0.21713706  0.76143754  0.13173661    -0.05900
C497        C  0.21484873  0.72313676  0.13062275    -0.32900
C498        C  0.23723878  0.70084385  0.15231344     0.36200
H499        H  0.28192970  0.76820179  0.19711001     0.16500
O500        O  0.24351654  0.81388614  0.16100378    -0.60400
H501        H  0.19566471  0.70954998  0.11333807     0.16500
O502        O  0.23389695  0.66373294  0.14966072    -0.60500
H503        H  0.24688117  0.65689390  0.12702060     0.43500
H504        H  0.22741612  0.82021287  0.18172931     0.43500
C505        C  0.12123745  0.14004524  0.69326580    -0.05600
C506        C  0.08843857  0.14079643  0.71267983    -0.33000
C507        C  0.06130319  0.11553499  0.70541859     0.36200
C508        C  0.06662855  0.08911252  0.67820415    -0.05900
C509        C  0.09838539  0.08967783  0.65716512    -0.32900
C510        C  0.12588908  0.11465569  0.66481742     0.36200
H511        H  0.08428678  0.16032887  0.73437680     0.16500
O512        O  0.03019024  0.11596360  0.72602879    -0.60400
H513        H  0.10294360  0.06915368  0.63648770     0.16500
O514        O  0.15805567  0.11228319  0.64604394    -0.60500
H515        H  0.17440600  0.09713113  0.66158553     0.43500
H516        H  0.01271221  0.13154337  0.71231296     0.43500
C517        C  0.21211827  0.12217228  0.77242193    -0.05600
C518        C  0.23931118  0.12672271  0.79884733    -0.33000
C519        C  0.24562276  0.09979855  0.82545990     0.36200
C520        C  0.22441930  0.06804084  0.82581568    -0.05900
C521        C  0.19884272  0.06269935  0.79806785    -0.32900
C522        C  0.19265605  0.08937546  0.77149632     0.36200
H523        H  0.25425256  0.15197968  0.80003751     0.16500
O524        O  0.27027924  0.10616106  0.85265548    -0.60400
H525        H  0.18289352  0.03803110  0.79749872     0.16500
O526        O  0.16772593  0.08307021  0.74447271    -0.60500
H527        H  0.14356309  0.08411699  0.75648074     0.43500
H528        H  0.29374388  0.09643620  0.84337250     0.43500
C529        C  0.14082656  0.22352758  0.78372252    -0.05600
C530        C  0.11057883  0.24588950  0.77583306    -0.33000
C531        C  0.08533947  0.25485710  0.80318832     0.36200
C532        C  0.09039531  0.24130161  0.83873568    -0.05900
C533        C  0.12209619  0.22126519  0.84696906    -0.32900
C534        C  0.14709906  0.21220471  0.81975386     0.36200
H535        H  0.10521317  0.25423620  0.74801991     0.16500
O536        O  0.05403092  0.27335049  0.79406339    -0.60400
H537        H  0.12637319  0.21070361  0.87424279     0.16500
O538        O  0.17704072  0.19122618  0.82833448    -0.60500
H539        H  0.16793723  0.16598114  0.83059188     0.43500
H540        H  0.05940472  0.29935184  0.79862633     0.43500
C541        C  0.28186576  0.26605506  0.63904619    -0.05600
C542        C  0.28496299  0.26314708  0.67717647    -0.33000
C543        C  0.26054920  0.24239302  0.69758622     0.36200
C544        C  0.23214100  0.22337136  0.68037959    -0.05900
C545        C  0.23001404  0.22509140  0.64210569    -0.32900
C546        C  0.25449650  0.24571660  0.62171847     0.36200
H547        H  0.30601640  0.27671894  0.69209680     0.16500
O548        O  0.26502053  0.24049786  0.73464517    -0.60400
H549        H  0.20960014  0.21081580  0.62699361     0.16500
O550        O  0.25061931  0.24674239  0.58457359    -0.60500
H551        H  0.26237762  0.22403771  0.57566245     0.43500
H552        H  0.25609555  0.26422964  0.74407468     0.43500
C553        C  0.91957250  0.77927611  0.97689313    -0.05600
C554        C  0.89164983  0.80472200  0.97095804    -0.33000
C555        C  0.86389631  0.80956877  0.99627018     0.36200
C556        C  0.86453764  0.79000416  0.02936637    -0.05900
C557        C  0.89192021  0.76336492  0.03477869    -0.32900
C558        C  0.91914799  0.75763092  0.00850532     0.36200
H559        H  0.89125150  0.82104277  0.94632300     0.16500
O560        O  0.83642461  0.83377633  0.98827068    -0.60400
H561        H  0.89311594  0.74802759  0.05998277     0.16500
O562        O  0.94650895  0.73283360  0.01517049    -0.60500
H563        H  0.93794801  0.70971316  0.00442992     0.43500
H564        H  0.82278573  0.82259416  0.96794158     0.43500
C565        C  0.74978155  0.91482289  0.98796718    -0.05600
C566        C  0.75046144  0.92535216  0.02460561    -0.33000
C567        C  0.75788912  0.89964288  0.05186398     0.36200
C568        C  0.76550273  0.86336488  0.04226369    -0.05900
C569        C  0.76031634  0.85211300  0.00627413    -0.32900
C570        C  0.75317034  0.87781147  0.97890291     0.36200
H571        H  0.74757303  0.95384822  0.03181866     0.16500
O572        O  0.76043205  0.91069858  0.08737277    -0.60400
H573        H  0.76487440  0.82385986  0.99899284     0.16500
O574        O  0.75159200  0.86686917  0.94328847    -0.60500
H575        H  0.77700325  0.86786840  0.93433002     0.43500
H576        H  0.73646242  0.90513716  0.09828832     0.43500
C577        C  0.86297512  0.87447309  0.12013915    -0.05600
C578        C  0.88941889  0.86788784  0.14725008    -0.33000
C579        C  0.91516527  0.89454791  0.15615533     0.36200
C580        C  0.91486817  0.92815611  0.13759623    -0.05900
C581        C  0.88718288  0.93546814  0.11236141    -0.32900
C582        C  0.86151269  0.90917772  0.10352420     0.36200
H583        H  0.89121986  0.84148460  0.16040816     0.16500
O584        O  0.94206115  0.88641721  0.18082773    -0.60400
H585        H  0.88603867  0.96156383  0.09846673     0.16500
O586        O  0.83461721  0.91814598  0.07914382    -0.60500
H587        H  0.84708669  0.92279866  0.05564255     0.43500
H588        H  0.93153520  0.89261880  0.20487144     0.43500
C589        C  0.73355520  0.72264537  0.18299769    -0.05600
C590        C  0.73395957  0.76081960  0.18669038    -0.33000
C591        C  0.75619427  0.78249493  0.16505508     0.36200
C592        C  0.77886911  0.76673712  0.13828009    -0.05900
C593        C  0.77990287  0.72845793  0.13558617    -0.32900
C594        C  0.75755789  0.70666798  0.15741988     0.36200
H595        H  0.71683570  0.77510556  0.20565606     0.16500
O596        O  0.75406015  0.81964594  0.16905209    -0.60400
H597        H  0.79699357  0.71473158  0.11605669     0.16500
O598        O  0.75944113  0.66951657  0.15353211    -0.60500
H599        H  0.74462717  0.66406454  0.13171917     0.43500
H600        H  0.76778056  0.82501281  0.19159315     0.43500
C601        C  0.06285275  0.78142042  0.81320181    -0.05600
C602        C  0.05722234  0.80984933  0.78828986    -0.33000
C603        C  0.08294477  0.81758193  0.76157723     0.36200
C604        C  0.11523669  0.79660422  0.75931692    -0.05900
C605        C  0.11974748  0.76654707  0.78289427    -0.32900
C606        C  0.09367051  0.75873946  0.80958008     0.36200
H607        H  0.03303366  0.82691153  0.79011245     0.16500
O608        O  0.07573022  0.84522340  0.73738905    -0.60400
H609        H  0.14435840  0.75010235  0.78189631     0.16500
O610        O  0.10002253  0.73082127  0.83370791    -0.60500
H611        H  0.09013608  0.70885591  0.82177910     0.43500
H612        H  0.07452971  0.86790345  0.75199940     0.43500
C613        C  0.20787331  0.87502041  0.76876422    -0.05600
C614        C  0.22969162  0.86277390  0.79799723    -0.33000
C615        C  0.23645416  0.88557098  0.82798660     0.36200
C616        C  0.22097766  0.92077678  0.82895561    -0.05900
C617        C  0.20030304  0.93319434  0.79941439    -0.32900
C618        C  0.19417466  0.91101504  0.76937205     0.36200
H619        H  0.24010889  0.83505918  0.79833159     0.16500
O620        O  0.25582761  0.87234046  0.85714233    -0.60400
H621        H  0.18860334  0.96044530  0.79965986     0.16500
O622        O  0.17409024  0.92471820  0.74095540    -0.60500
H623        H  0.18913446  0.94428843  0.73021044     0.43500
H624        H  0.28123318  0.88003150  0.85279758     0.43500
C625        C  0.13166739  0.87787530  0.66826202    -0.05600
C626        C  0.09512181  0.86849523  0.66402741    -0.33000
C627        C  0.06851000  0.89558027  0.65963537     0.36200
C628        C  0.07859041  0.93240122  0.65909239    -0.05900
C629        C  0.11551742  0.94154926  0.65914290    -0.32900
C630        C  0.14218732  0.91422169  0.66301329     0.36200
H631        H  0.08691557  0.84039896  0.66726154     0.16500
O632        O  0.03252697  0.88605619  0.65950342    -0.60400
H633        H  0.12351259  0.96986570  0.65810992     0.16500
O634        O  0.17818840  0.92349329  0.66420238    -0.60500
H635        H  0.18682390  0.92149127  0.63873365     0.43500
H636        H  0.02491056  0.88745217  0.63364701     0.43500
C637        C  0.26925658  0.72942111  0.62966718    -0.05600
C638        C  0.27232584  0.76766189  0.62847452    -0.33000
C639        C  0.25029362  0.79025406  0.64997932     0.36200
C640        C  0.22419604  0.77524129  0.67372328    -0.05900
C641        C  0.22292156  0.73696926  0.67679262    -0.32900
C642        C  0.24518779  0.71439164  0.65546480     0.36200
H643        H  0.29188525  0.78100638  0.61138066     0.16500
O644        O  0.25468885  0.82731250  0.64774797    -0.60400
H645        H  0.20512270  0.72364852  0.69575810     0.16500
O646        O  0.24260021  0.67733368  0.65957975    -0.60500
H647        H  0.25769733  0.67126313  0.68118427     0.43500
H648        H  0.24495923  0.83453399  0.62357864     0.43500
C649        C  0.77788457  0.13735694  0.79866336    -0.05600
C650        C  0.79708017  0.13609065  0.83156141    -0.33000
C651        C  0.79056766  0.10860151  0.85683989     0.36200
C652        C  0.76419561  0.08215490  0.84948820    -0.05900
C653        C  0.74283884  0.08509636  0.81794289    -0.32900
C654        C  0.74965166  0.11252616  0.79237249     0.36200
H655        H  0.81836219  0.15557302  0.83697088     0.16500
O656        O  0.81016861  0.10767073  0.88863542    -0.60400
H657        H  0.72241194  0.06485916  0.81208801     0.16500
O658        O  0.73103906  0.11268486  0.76001560    -0.60500
H659        H  0.70782480  0.12566300  0.76516307     0.43500
H660        H  0.83423646  0.09718191  0.88200723     0.43500
C661        C  0.93370856  0.22481429  0.83325218    -0.05600
C662        C  0.90302877  0.24807612  0.83325427    -0.33000
C663        C  0.87367071  0.24199512  0.80960939     0.36200
C664        C  0.87495417  0.21255153  0.78517703    -0.05900
C665        C  0.90638235  0.19045572  0.78404725    -0.32900
C666        C  0.93535540  0.19609845  0.80798427     0.36200
H667        H  0.90103818  0.27003813  0.85280292     0.16500
O668        O  0.84286248  0.26316028  0.81259768    -0.60400
H669        H  0.90822928  0.16806984  0.76495757     0.16500
O670        O  0.96537068  0.17363783  0.80612701    -0.60500
H671        H  0.95841375  0.15106352  0.81917476     0.43500
H672        H  0.84858612  0.28619475  0.79976484     0.43500
C673        C  0.91354985  0.07363376  0.68718190    -0.05600
C674        C  0.88836575  0.06533817  0.71452217    -0.33000
C675        C  0.86058069  0.08996356  0.72352069     0.36200
C676        C  0.85812294  0.12379269  0.70546413    -0.05900
C677        C  0.88197607  0.13123208  0.67661691    -0.32900
C678        C  0.90939376  0.10620170  0.66715822     0.36200
H679        H  0.89048707  0.03979347  0.72929396     0.16500
O680        O  0.83545071  0.08052122  0.74945638    -0.60400
H681        H  0.88052085  0.15722272  0.66259652     0.16500
O682        O  0.93359176  0.11506156  0.64024239    -0.60500
H683        H  0.92209286  0.10680416  0.61732716     0.43500
H684        H  0.84915704  0.07815747  0.77261256     0.43500
C685        C  0.73283958  0.27697271  0.64462039    -0.05600
C686        C  0.77118728  0.27508464  0.64522256    -0.33000
C687        C  0.78989133  0.25219564  0.66933222     0.36200
C688        C  0.77084846  0.23039048  0.69439360    -0.05900
C689        C  0.73247562  0.23118208  0.69303090    -0.32900
C690        C  0.71368833  0.25399213  0.66860720     0.36200
H691        H  0.78780916  0.29038408  0.62678042     0.16500
O692        O  0.82722731  0.25139385  0.66812401    -0.60400
H693        H  0.71623505  0.21374224  0.70995538     0.16500
O694        O  0.67637631  0.25282455  0.66765461    -0.60500
H695        H  0.66807120  0.26595374  0.68971943     0.43500
H696        H  0.83353921  0.23579156  0.64702049     0.43500
C697        C  0.85526462  0.79567634  0.77571460    -0.05600
C698        C  0.85527006  0.81526556  0.80840040    -0.33000
C699        C  0.88190333  0.80895398  0.83474071     0.36200
C700        C  0.90921201  0.78248595  0.82886572    -0.05900
C701        C  0.90756444  0.76061187  0.79760331    -0.32900
C702        C  0.88090567  0.76724105  0.77087143     0.36200
H703        H  0.83521247  0.83660227  0.81304912     0.16500
O704        O  0.88163305  0.82961845  0.86577019    -0.60400
H705        H  0.92822939  0.73990639  0.79286236     0.16500
O706        O  0.88157198  0.74729620  0.73939024    -0.60500
H707        H  0.89634256  0.76172127  0.72207386     0.43500
H708        H  0.86529972  0.81662342  0.88281207     0.43500
C709        C  0.77310069  0.88562202  0.76730004    -0.05600
C710        C  0.79147517  0.91871419  0.77043135    -0.33000
C711        C  0.78502218  0.94187404  0.79985009     0.36200
C712        C  0.75937865  0.93245266  0.82668492    -0.05900
C713        C  0.73888589  0.90071362  0.82223786    -0.32900
C714        C  0.74570593  0.87718943  0.79278171     0.36200
H715        H  0.81214569  0.92596337  0.75074410     0.16500
O716        O  0.80414052  0.97370179  0.80233361    -0.60400
H717        H  0.71920079  0.89304036  0.84272992     0.16500
O718        O  0.72789072  0.84461008  0.79107635    -0.60500
H719        H  0.70395837  0.85047041  0.77991974     0.43500
H720        H  0.82863121  0.96644566  0.81130647     0.43500
C721        C  0.86921316  0.87517250  0.68546334    -0.05600
C722        C  0.90138017  0.87204292  0.70570634    -0.33000
C723        C  0.93039217  0.89524514  0.69923757     0.36200
C724        C  0.92754526  0.92244407  0.67217532    -0.05900
C725        C  0.89656138  0.92366225  0.64978884    -0.32900
C726        C  0.86739079  0.90011011  0.65625943     0.36200
H727        H  0.90366425  0.85219232  0.72751593     0.16500
O728        O  0.96075739  0.89227289  0.72082563    -0.60400
H729        H  0.89390836  0.94441424  0.62889281     0.16500
O730        O  0.83617415  0.90390696  0.63609001    -0.60500
H731        H  0.84123992  0.89097076  0.61297126     0.43500
H732        H  0.97662101  0.87407984  0.70856863     0.43500
C733        C  0.71769033  0.73946076  0.63095846    -0.05600
C734        C  0.71566779  0.74022523  0.66921025    -0.33000
C735        C  0.73811464  0.76292574  0.68968519     0.36200
C736        C  0.76358186  0.78576120  0.67240754    -0.05900
C737        C  0.76487340  0.78563802  0.63409510    -0.32900
C738        C  0.74232118  0.76315971  0.61365364     0.36200
H739        H  0.69673311  0.72373071  0.68410411     0.16500
O740        O  0.73433153  0.76321265  0.72684914    -0.60400
H741        H  0.78276015  0.80302670  0.61896072     0.16500
O742        O  0.74501641  0.76418010  0.57639463    -0.60500
H743        H  0.73157792  0.78649821  0.56876363     0.43500
H744        H  0.74563729  0.74010542  0.73548359     0.43500
C745        C  0.58226771  0.42421610  0.19011128    -0.05600
C746        C  0.61181797  0.42022159  0.16620703    -0.33000
C747        C  0.64066204  0.39593751  0.17428599     0.36200
C748        C  0.63987739  0.37473036  0.20655939    -0.05900
C749        C  0.60974661  0.37869672  0.22975412    -0.32900
C750        C  0.58130831  0.40278291  0.22187084     0.36200
H751        H  0.61326557  0.43694056  0.14190841     0.16500
O752        O  0.67040893  0.39520689  0.15179196    -0.60400
H753        H  0.60745395  0.36314475  0.25452463     0.16500
O754        O  0.55287360  0.40573965  0.24597871    -0.60500
H755        H  0.54205961  0.38113336  0.24752381     0.43500
H756        H  0.66210759  0.38317871  0.12917723     0.43500
C757        C  0.62848843  0.63259290  0.18676015    -0.05600
C758        C  0.59504878  0.63511543  0.20488373    -0.33000
C759        C  0.56792333  0.60946610  0.19916031     0.36200
C760        C  0.57346328  0.58082275  0.17427084    -0.05900
C761        C  0.60570242  0.58007721  0.15357116    -0.32900
C762        C  0.63329158  0.60574175  0.15982186     0.36200
H763        H  0.59063136  0.65602343  0.22522490     0.16500
O764        O  0.53619990  0.61223630  0.21865897    -0.60400
H765        H  0.61050742  0.55824668  0.13434553     0.16500
O766        O  0.66587862  0.60226060  0.14197976    -0.60500
H767        H  0.66346514  0.61798565  0.12010780     0.43500
H768        H  0.54222253  0.60296499  0.24335673     0.43500
C769        C  0.42200273  0.57242352  0.16343062    -0.05600
C770        C  0.38620504  0.56251534  0.15506795    -0.33000
C771        C  0.35725167  0.58701942  0.16122196     0.36200
C772        C  0.36426495  0.62185784  0.17527075    -0.05900
C773        C  0.40026518  0.63244316  0.18124991    -0.32900
C774        C  0.42904530  0.60801167  0.17539744     0.36200
H775        H  0.38045120  0.53497804  0.14640710     0.16500
O776        O  0.32215976  0.57592330  0.15579556    -0.60400
H777        H  0.40586863  0.65894221  0.19280320     0.16500
O778        O  0.46375180  0.61820579  0.18410047    -0.60500
H779        H  0.47330677  0.63002736  0.16182251     0.43500
H780        H  0.31548986  0.56250952  0.17827667     0.43500
C781        C  0.38227347  0.35664206  0.19208459    -0.05600
C782        C  0.41587069  0.35735816  0.21025564    -0.33000
C783        C  0.44058754  0.38541675  0.20422961     0.36200
C784        C  0.43251090  0.41341996  0.17917658    -0.05900
C785        C  0.40005097  0.41162378  0.15901402    -0.32900
C786        C  0.37475759  0.38369869  0.16563230     0.36200
H787        H  0.42250379  0.33668936  0.23039673     0.16500
O788        O  0.47240512  0.38567286  0.22367846    -0.60400
H789        H  0.39335586  0.43299959  0.13967100     0.16500
O790        O  0.34200155  0.38447350  0.14777412    -0.60500
H791        H  0.32524167  0.39813958  0.16399853     0.43500
H792        H  0.48954412  0.37034250  0.20941947     0.43500
C793        C  0.43126814  0.26853643  0.48629229    -0.05600
C794        C  0.40057932  0.28970835  0.47735893    -0.33000
C795        C  0.37224164  0.29440713  0.50217663     0.36200
C796        C  0.37464113  0.27863756  0.53705870    -0.05900
C797        C  0.40437909  0.25576855  0.54548936    -0.32900
C798        C  0.43265409  0.25054896  0.52020077     0.36200
H799        H  0.39887857  0.30324944  0.45117164     0.16500
O800        O  0.34295087  0.31585416  0.49261448    -0.60400
H801        H  0.40673809  0.24377813  0.57237659     0.16500
O802        O  0.46235585  0.22965262  0.52963833    -0.60500
H803        H  0.47929469  0.24663237  0.54174119     0.43500
H804        H  0.32357751  0.29857580  0.48573285     0.43500
C805        C  0.59135017  0.27636284  0.48441301    -0.05600
C806        C  0.59282886  0.25547146  0.51649261    -0.33000
C807        C  0.61892650  0.26272507  0.54350730     0.36200
C808        C  0.64417969  0.29099165  0.53835464    -0.05900
C809        C  0.64382236  0.31023231  0.50527967    -0.32900
C810        C  0.61766501  0.30336697  0.47866431     0.36200
H811        H  0.57261577  0.23476162  0.52143037     0.16500
O812        O  0.61757886  0.24408884  0.57586402    -0.60400
H813        H  0.66337041  0.33150302  0.50026593     0.16500
O814        O  0.61823663  0.32304365  0.44684064    -0.60500
H815        H  0.60703337  0.34697382  0.45286331     0.43500
H816        H  0.62914158  0.22009685  0.57086495     0.43500
C817        C  0.64157835  0.28039968  0.28106570    -0.05600
C818        C  0.60539104  0.28938564  0.27269638    -0.33000
C819        C  0.57771116  0.28382409  0.29812227     0.36200
C820        C  0.58581304  0.26736121  0.33180013    -0.05900
C821        C  0.62146937  0.25510058  0.33882880    -0.32900
C822        C  0.64942692  0.26176274  0.31369563     0.36200
H823        H  0.59882507  0.30227683  0.24695995     0.16500
O824        O  0.54287752  0.29503686  0.29009845    -0.60400
H825        H  0.62804088  0.24248739  0.36474294     0.16500
O826        O  0.68459875  0.25259556  0.32251189    -0.60500
H827        H  0.68903881  0.22867489  0.31078577     0.43500
H828        H  0.54224977  0.32151896  0.29534379     0.43500
C829        C  0.42870716  0.26224104  0.33866849    -0.05600
C830        C  0.43045346  0.24239317  0.30605995    -0.33000
C831        C  0.40387631  0.24772639  0.27887968     0.36200
C832        C  0.37509502  0.27268674  0.28464116    -0.05900
C833        C  0.37209109  0.29023264  0.31829569    -0.32900
C834        C  0.39874024  0.28558435  0.34493349     0.36200
H835        H  0.45362295  0.22474325  0.30068030     0.16500
O836        O  0.40815542  0.23118691  0.24574921    -0.60400
H837        H  0.34994213  0.30932346  0.32322077     0.16500
O838        O  0.39573761  0.30470489  0.37684238    -0.60500
H839        H  0.40365277  0.32978357  0.37090521     0.43500
H840        H  0.39533389  0.20766530  0.24799697     0.43500
C841        C  0.27286725  0.62269878  0.54123725    -0.05600
C842        C  0.25134960  0.63057246  0.51052307    -0.33000
C843        C  0.24556134  0.60382808  0.48388725     0.36200
C844        C  0.26180462  0.56915804  0.48787314    -0.05900
C845        C  0.28088828  0.56066779  0.51983762    -0.32900
C846        C  0.28636354  0.58707238  0.54647344     0.36200
H847        H  0.24130995  0.65806239  0.50593315     0.16500
O848        O  0.22707570  0.61283954  0.45266520    -0.60400
H849        H  0.29300937  0.53383463  0.52342834     0.16500
O850        O  0.30588279  0.57820020  0.57717387    -0.60500
H851        H  0.33142013  0.57503970  0.56900303     0.43500
H852        H  0.20166964  0.60524954  0.45712597     0.43500
C853        C  0.29000328  0.36927213  0.54753172    -0.05600
C854        C  0.26518687  0.36113088  0.51971943    -0.33000
C855        C  0.25719049  0.38690598  0.49244061     0.36200
C856        C  0.27445739  0.42098074  0.49279900    -0.05900
C857        C  0.29734962  0.42976326  0.52191741    -0.32900
C858        C  0.30504027  0.40430129  0.54922931     0.36200
H859        H  0.25372117  0.33411850  0.51796631     0.16500
O860        O  0.23510324  0.37740639  0.46400942    -0.60400
H861        H  0.31012218  0.45622793  0.52298550     0.16500
O862        O  0.32732034  0.41381577  0.57757184    -0.60500
H863        H  0.35206730  0.41564629  0.56703250     0.43500
H864        H  0.21027965  0.38510427  0.47148796     0.43500
C865        C  0.27822658  0.61125518  0.26720736    -0.05600
C866        C  0.29621511  0.57736985  0.26745652    -0.33000
C867        C  0.29183936  0.55304384  0.29635485     0.36200
C868        C  0.26846739  0.56191751  0.32536823    -0.05900
C869        C  0.24839640  0.59460168  0.32410937    -0.32900
C870        C  0.25337278  0.61945230  0.29537330     0.36200
H871        H  0.31505228  0.57030104  0.24588853     0.16500
O872        O  0.31074603  0.52061427  0.29616711    -0.60400
H873        H  0.23055807  0.60184379  0.34646249     0.16500
O874        O  0.23651584  0.65290258  0.29692666    -0.60500
H875        H  0.21140397  0.64879552  0.28807834     0.43500
H876        H  0.33559298  0.52658402  0.30465421     0.43500
C877        C  0.28111888  0.41627201  0.33372895    -0.05600
C878        C  0.30743436  0.42343920  0.30715483    -0.33000
C879        C  0.31470893  0.39848503  0.27959442     0.36200
C880        C  0.29641603  0.36501564  0.27888666    -0.05900
C881        C  0.26911449  0.35819134  0.30473393    -0.32900
C882        C  0.26131952  0.38370166  0.33208359     0.36200
H883        H  0.32254395  0.44860561  0.30777537     0.16500
O884        O  0.34003284  0.40704081  0.25362120    -0.60400
H885        H  0.25490165  0.33248346  0.30461415     0.16500
O886        O  0.23558210  0.37586629  0.35787081    -0.60500
H887        H  0.24910947  0.36357688  0.37787720     0.43500
H888        H  0.32594228  0.41823152  0.23340421     0.43500
C889        C  0.56928690  0.73745624  0.47849120    -0.05600
C890        C  0.55912071  0.73783997  0.51521674    -0.33000
C891        C  0.58555144  0.73444526  0.54246514     0.36200
C892        C  0.62236472  0.73015880  0.53284610    -0.05900
C893        C  0.63267679  0.73219530  0.49624060    -0.32900
C894        C  0.60629246  0.73568791  0.46899766     0.36200
H895        H  0.53059719  0.73878183  0.52264986     0.16500
O896        O  0.57492957  0.73232476  0.57816650    -0.60400
H897        H  0.66099564  0.72878304  0.48868920     0.16500
O898        O  0.61668632  0.73541200  0.43314229    -0.60500
H899        H  0.61981289  0.70932719  0.42684929     0.43500
H900        H  0.57822046  0.75718798  0.58797636     0.43500
C901        C  0.41236367  0.72252245  0.47115234    -0.05600
C902        C  0.38687024  0.69496218  0.46581998    -0.33000
C903        C  0.35970817  0.68846197  0.49142999     0.36200
C904        C  0.35815531  0.70934435  0.52346750    -0.05900
C905        C  0.38244574  0.73839907  0.52788026    -0.32900
C906        C  0.40932173  0.74526796  0.50171142     0.36200
H907        H  0.38848130  0.67780882  0.44192858     0.16500
O908        O  0.33428411  0.66219333  0.48455369    -0.60400
H909        H  0.38175952  0.75462419  0.55244185     0.16500
O910        O  0.43415106  0.77221514  0.50770054    -0.60500
H911        H  0.42355325  0.79427301  0.49600605     0.43500
H912        H  0.34791369  0.63873549  0.48360795     0.43500
C913        C  0.57896317  0.72002219  0.33076304    -0.05600
C914        C  0.60588669  0.69376667  0.33863058    -0.33000
C915        C  0.63443825  0.68729805  0.31460774     0.36200
C916        C  0.63610923  0.70668472  0.28160844    -0.05900
C917        C  0.61064506  0.73466824  0.27465267    -0.32900
C918        C  0.58221300  0.74161968  0.29921675     0.36200
H919        H  0.60439250  0.67756877  0.36329012     0.16500
O920        O  0.65995753  0.66110584  0.32320138    -0.60400
H921        H  0.61167586  0.74981048  0.24932445     0.16500
O922        O  0.55629849  0.76741339  0.29072666    -0.60500
H923        H  0.56654654  0.79082666  0.29906434     0.43500
H924        H  0.68121007  0.67466008  0.33250049     0.43500
C925        C  0.41876891  0.70800788  0.32385905    -0.05600
C926        C  0.41436126  0.73149662  0.29389844    -0.33000
C927        C  0.38755812  0.72488992  0.26760612     0.36200
C928        C  0.36416928  0.69491547  0.27161881    -0.05900
C929        C  0.36781860  0.67239657  0.30234201    -0.32900
C930        C  0.39477779  0.67864588  0.32821751     0.36200
H931        H  0.43247487  0.75431582  0.29025194     0.16500
O932        O  0.38535950  0.74712998  0.23761664    -0.60400
H933        H  0.34960614  0.64973150  0.30646716     0.16500
O934        O  0.39718603  0.65601692  0.35792944    -0.60500
H935        H  0.37968914  0.66621389  0.37579015     0.43500
H936        H  0.40048449  0.73494275  0.21881628     0.43500
C937        C  0.73152918  0.58978723  0.48087559    -0.05600
C938        C  0.75009224  0.59244255  0.51411039    -0.33000
C939        C  0.74032734  0.61942884  0.53945034     0.36200
C940        C  0.71185200  0.64427198  0.53138518    -0.05900
C941        C  0.69518918  0.64293737  0.49707558    -0.32900
C942        C  0.70461351  0.61591142  0.47206619     0.36200
H943        H  0.77055255  0.57223484  0.52138555     0.16500
O944        O  0.75645283  0.61915511  0.57310381    -0.60400
H945        H  0.67385177  0.66221691  0.48994266     0.16500
O946        O  0.68717701  0.61503037  0.43903217    -0.60500
H947        H  0.66298688  0.60440709  0.44405877     0.43500
H948        H  0.78051892  0.63054587  0.56943246     0.43500
C949        C  0.74768643  0.43069153  0.49686653    -0.05600
C950        C  0.74660140  0.43940422  0.53393574    -0.33000
C951        C  0.73881625  0.41235751  0.55964694     0.36200
C952        C  0.73132643  0.37677208  0.54790408    -0.05900
C953        C  0.73490376  0.36770207  0.51119603    -0.32900
C954        C  0.74324696  0.39444412  0.48566249     0.36200
H955        H  0.74972817  0.46737421  0.54264547     0.16500
O956        O  0.73590269  0.42145575  0.59569929    -0.60400
H957        H  0.72950031  0.34021708  0.50214807     0.16500
O958        O  0.74396157  0.38555084  0.44944902    -0.60500
H959        H  0.77011703  0.38314433  0.44321253     0.43500
H960        H  0.75980090  0.41488841  0.60653474     0.43500
C961        C  0.74665545  0.41707493  0.34795333    -0.05600
C962        C  0.72410454  0.38746769  0.35560145    -0.33000
C963        C  0.71650339  0.36153867  0.32899759     0.36200
C964        C  0.73143143  0.36502554  0.29388359    -0.05900
C965        C  0.75628991  0.39306078  0.28700494    -0.32900
C966        C  0.76403281  0.41902141  0.31388374     0.36200
H967        H  0.71085588  0.38536232  0.38184892     0.16500
O968        O  0.69426105  0.33292948  0.33747447    -0.60400
H969        H  0.76785196  0.39621573  0.26008485     0.16500
O970        O  0.78554309  0.44810401  0.30533335    -0.60500
H971        H  0.81051566  0.44045763  0.31242627     0.43500
H972        H  0.66982622  0.34378743  0.34187158     0.43500
C973        C  0.73424893  0.56864839  0.32911144    -0.05600
C974        C  0.70879132  0.56010846  0.30215028    -0.33000
C975        C  0.70194465  0.58409153  0.27343536     0.36200
C976        C  0.71993019  0.61776565  0.27191328    -0.05900
C977        C  0.74699820  0.62542659  0.29767695    -0.32900
C978        C  0.75426955  0.60102787  0.32621762     0.36200
H979        H  0.69370321  0.53493394  0.30368369     0.16500
O980        O  0.67671174  0.57479701  0.24763805    -0.60400
H981        H  0.76092858  0.65128225  0.29698832     0.16500
O982        O  0.77935301  0.61008333  0.35222787    -0.60500
H983        H  0.76521585  0.62270485  0.37153942     0.43500
H984        H  0.69105625  0.56734253  0.22603849     0.43500
C985        C  0.56763776  0.58734449  0.63044505    -0.05600
C986        C  0.59912184  0.58947708  0.65189368    -0.33000
C987        C  0.62536152  0.61603641  0.64456642     0.36200
C988        C  0.61975352  0.64117825  0.61589114    -0.05900
C989        C  0.58719313  0.64013074  0.59609325    -0.32900
C990        C  0.56129257  0.61364821  0.60317726     0.36200
H991        H  0.60438861  0.56926314  0.67284781     0.16500
O992        O  0.65711014  0.61579344  0.66417678    -0.60400
H993        H  0.58194076  0.65950389  0.57441255     0.16500
O994        O  0.53018912  0.61304197  0.58253276    -0.60500
H995        H  0.51401688  0.63196206  0.59325357     0.43500
H996        H  0.67418147  0.60018799  0.65012627     0.43500
C997        C  0.42069439  0.57728912  0.63010294    -0.05600
C998        C  0.42741394  0.60514362  0.60497666    -0.33000
C999        C  0.40206548  0.63295327  0.59916776     0.36200
C1000       C  0.36868416  0.63285788  0.61789743    -0.05900
C1001       C  0.36234600  0.60586655  0.64430389    -0.32900
C1002       C  0.38827296  0.57804930  0.65051323     0.36200
H1003       H  0.45237965  0.60508159  0.58933377     0.16500
O1004       O  0.40964151  0.65942049  0.57393633    -0.60400
H1005       H  0.33654734  0.60518327  0.65851203     0.16500
O1006       O  0.38083308  0.55080618  0.67494111    -0.60500
H1007       H  0.37006578  0.53102314  0.66029175     0.43500
H1008       H  0.42000880  0.67981688  0.58808001     0.43500
C1009       C  0.43394306  0.41650474  0.63663393    -0.05600
C1010       C  0.40172368  0.41622049  0.65706743    -0.33000
C1011       C  0.37618298  0.38859329  0.65193570     0.36200
C1012       C  0.38314564  0.36089621  0.62636664    -0.05900
C1013       C  0.41649596  0.35989781  0.60801067    -0.32900
C1014       C  0.44174334  0.38751308  0.61282294     0.36200
H1015       H  0.39534490  0.43857563  0.67524076     0.16500
O1016       O  0.34323068  0.39085276  0.66928784    -0.60400
H1017       H  0.42233516  0.33840793  0.58863527     0.16500
O1018       O  0.47392437  0.38616533  0.59391566    -0.60500
H1019       H  0.46781260  0.39449211  0.56892315     0.43500
H1020       H  0.34735974  0.37958230  0.69351309     0.43500
C1021       C  0.58542071  0.43290955  0.63751442    -0.05600
C1022       C  0.58466139  0.40023605  0.65749887    -0.33000
C1023       C  0.61166885  0.37335854  0.65223231     0.36200
C1024       C  0.63975319  0.37935851  0.62687350    -0.05900
C1025       C  0.64158780  0.41310080  0.60899828    -0.32900
C1026       C  0.61466196  0.43959109  0.61392125     0.36200
H1027       H  0.56203672  0.39467744  0.67549535     0.16500
O1028       O  0.60859273  0.34035853  0.66949137    -0.60400
H1029       H  0.66331000  0.41856610  0.58995097     0.16500
O1030       O  0.61695855  0.47197694  0.59531284    -0.60500
H1031       H  0.60870770  0.46655920  0.57021993     0.43500
H1032       H  0.61898258  0.34409024  0.69408299     0.43500
loop_ 
_geom_bond_atom_site_label_1 
_geom_bond_atom_site_label_2 
_geom_bond_distance 
_geom_bond_site_symmetry_2 
_ccdc_geom_bond_type 
O1           Ni9   1.905       .  S
O1           C11   1.280       .  A
O2           Ni9   1.903       .  S
O2           C12   1.279       .  A
O3           Ni9   1.900       .  S
O3           C13   1.278       .  A
O4           Ni9   1.896       .  S
O4           C14   1.277       .  A
O5          Ni10   1.931       .  S
O5           C14   1.284       .  A
O6          Ni10   1.923       .  S
O6           C13   1.282       .  A
O7          Ni10   1.926       .  S
O7           C12   1.282       .  A
O8          Ni10   1.927       .  S
O8           C11   1.282       .  A
Ni9         Ni10   2.391       .  S
C11         C997   1.471       .  S
C12        C1021   1.470       .  S
C13        C1009   1.468       .  S
C14         C985   1.471       .  S
O15         Ni23   1.899       .  S
O15          C25   1.278       .  A
O16         Ni23   1.901       .  S
O16          C26   1.278       .  A
O17         Ni23   1.905       .  S
O17          C27   1.280       .  A
O18         Ni23   1.903       .  S
O18          C28   1.278       .  A
O19         Ni24   1.918       .  S
O19          C28   1.279       .  A
O20         Ni24   1.917       .  S
O20          C27   1.281       .  A
O21         Ni24   1.934       .  S
O21          C26   1.284       .  A
O22         Ni24   1.936       .  S
O22          C25   1.285       .  A
Ni23        Ni24   2.391       .  S
C25         C961   1.474       .  S
C26         C937   1.474       .  S
C27         C973   1.469       .  S
C28         C949   1.457       .  S
O29         Ni37   1.930       .  S
O29          C39   1.283       .  A
O30         Ni37   1.928       .  S
O30          C40   1.283       .  A
O31         Ni37   1.922       .  S
O31          C41   1.282       .  A
O32         Ni37   1.919       .  S
O32          C42   1.280       .  A
O33         Ni38   1.908       .  S
O33          C42   1.279       .  A
O34         Ni38   1.909       .  S
O34          C41   1.280       .  A
O35         Ni38   1.897       .  S
O35          C40   1.278       .  A
O36         Ni38   1.895       .  S
O36          C39   1.277       .  A
Ni37        Ni38   2.392       .  S
C39         C901   1.468       .  S
C40         C913   1.473       .  S
C41         C925   1.476       .  S
C42         C889   1.462       .  S
O43         Ni51   1.906       .  S
O43          C53   1.279       .  A
O44         Ni51   1.907       .  S
O44          C54   1.279       .  A
O45         Ni51   1.904       .  S
O45          C55   1.279       .  A
O46         Ni51   1.902       .  S
O46          C56   1.279       .  A
O47         Ni52   1.926       .  S
O47          C56   1.282       .  A
O48         Ni52   1.930       .  S
O48          C55   1.282       .  A
O49         Ni52   1.930       .  S
O49          C54   1.283       .  A
O50         Ni52   1.928       .  S
O50          C53   1.283       .  A
Ni51        Ni52   2.392       .  S
C53         C856   1.473       .  S
C54         C868   1.473       .  S
C55         C844   1.470       .  S
C56         C877   1.471       .  S
O57         Ni65   1.899       .  S
O57          C67   1.278       .  A
O58         Ni65   1.908       .  S
O58          C68   1.280       .  A
O59         Ni65   1.913       .  S
O59          C69   1.280       .  A
O60         Ni65   1.913       .  S
O60          C70   1.281       .  A
O61         Ni66   1.927       .  S
O61          C70   1.282       .  A
O62         Ni66   1.927       .  S
O62          C69   1.282       .  A
O63         Ni66   1.932       .  S
O63          C68   1.284       .  A
O64         Ni66   1.938       .  S
O64          C67   1.285       .  A
Ni65        Ni66   2.390       .  S
C67         C829   1.476       .  S
C68         C805   1.480       .  S
C69         C820   1.473       .  S
C70         C793   1.475       .  S
O71         Ni79   1.909       .  S
O71          C81   1.280       .  A
O72         Ni79   1.915       .  S
O72          C82   1.281       .  A
O73         Ni79   1.900       .  S
O73          C83   1.279       .  A
O74         Ni79   1.905       .  S
O74          C84   1.278       .  A
O75         Ni80   1.932       .  S
O75          C84   1.283       .  A
O76         Ni80   1.932       .  S
O76          C83   1.284       .  A
O77         Ni80   1.939       .  S
O77          C82   1.285       .  A
O78         Ni80   1.939       .  S
O78          C81   1.284       .  A
Ni79        Ni80   2.388       .  S
C81         C760   1.485       .  S
C82         C784   1.485       .  S
C83         C745   1.479       .  S
C84         C769   1.469       .  S
C85          C86   1.545       .  S
C85          C91   1.551       .  S
C85          C89   1.543       .  S
C85         C733   1.529       .  S
C86          H93   1.085       .  S
C86          C87   1.365       .  D
C87          C88   1.533       .  S
C87         C940   1.486       .  S
C88          C92   1.534       .  S
C88          C90   1.526       .  S
C88          H94   1.111       .  S
C89          H95   1.086       .  S
C89          C90   1.359       .  D
C90         C892   1.468       .  S
C91          H96   1.080       .  S
C91          C92   1.366       .  D
C92         C988   1.482       .  S
C97          C98   1.546       .  S
C97         C103   1.548       .  S
C97         C101   1.551       .  S
C97         C736   1.531       .  S
C98         H105   1.086       .  S
C98          C99   1.365       .  D
C99         C100   1.530       .  S
C99         C709   1.485       .  S
C100        C104   1.531       .  S
C100        C102   1.530       .  S
C100        H106   1.111       .  S
C101        H107   1.080       .  S
C101        C102   1.361       .  D
C102        C721   1.479       .  S
C103        H108   1.085       .  S
C103        C104   1.366       .  D
C104        C697   1.483       .  S
C109        C110   1.547       .  S
C109        C115   1.550       .  S
C109        C113   1.547       .  S
C109        C685   1.533       .  S
C110        H117   1.085       .  S
C110        C111   1.367       .  D
C111        C112   1.533       .  S
C111       C1024   1.482       .  S
C112        C116   1.523       .  S
C112        C114   1.534       .  S
C112        H118   1.111       .  S
C113        H119   1.085       .  S
C113        C114   1.369       .  D
C114        C808   1.491       .  S
C115        H120   1.080       .  S
C115        C116   1.353       .  D
C116        C952   1.464       .  S
C121        C122   1.551       .  S
C121        C127   1.547       .  S
C121        C125   1.544       .  S
C121        C688   1.530       .  S
C122        H129   1.085       .  S
C122        C123   1.368       .  D
C123        C124   1.528       .  S
C123        C664   1.487       .  S
C124        C128   1.527       .  S
C124        C126   1.527       .  S
C124        H130   1.109       .  S
C125        H131   1.086       .  S
C125        C126   1.363       .  D
C126        C676   1.479       .  S
C127        H132   1.081       .  S
C127        C128   1.361       .  D
C128        C649   1.470       .  S
C133        C134   1.553       .  S
C133        C139   1.547       .  S
C133        C137   1.550       .  S
C133        C637   1.534       .  S
C134        H141   1.081       .  S
C134        C135   1.363       .  D
C135        C136   1.529       .  S
C135        C904   1.482       .  S
C136        C140   1.526       .  S
C136        C138   1.527       .  S
C136        H142   1.109       .  S
C137        H143   1.086       .  S
C137        C138   1.365       .  D
C138        C841   1.478       .  S
C139        H144   1.086       .  S
C139        C140   1.364       .  D
C140       C1000   1.479       .  S
C145        C146   1.550       .  S
C145        C151   1.547       .  S
C145        C149   1.545       .  S
C145        C640   1.534       .  S
C146        H153   1.080       .  S
C146        C147   1.366       .  D
C147        C148   1.535       .  S
C147        C604   1.489       .  S
C148        C152   1.534       .  S
C148        C150   1.531       .  S
C148        H154   1.107       .  S
C149        H155   1.086       .  S
C149        C150   1.358       .  D
C150        C625   1.472       .  S
C151        H156   1.086       .  S
C151        C152   1.368       .  D
C152        C613   1.490       .  S
C157        C158   1.551       .  S
C157        C163   1.543       .  S
C157        C161   1.554       .  S
C157        C589   1.533       .  S
C158        H165   1.085       .  S
C158        C159   1.368       .  D
C159        C160   1.529       .  S
C159        C757   1.484       .  S
C160        C164   1.529       .  S
C160        C162   1.525       .  S
C160        H166   1.110       .  S
C161        H167   1.079       .  S
C161        C162   1.359       .  D
C162        C916   1.476       .  S
C163        H168   1.086       .  S
C163        C164   1.364       .  D
C164        C976   1.478       .  S
C169        C170   1.545       .  S
C169        C175   1.551       .  S
C169        C173   1.542       .  S
C169        C592   1.529       .  S
C170        H177   1.086       .  S
C170        C171   1.367       .  D
C171        C172   1.538       .  S
C171        C577   1.494       .  S
C172        C176   1.537       .  S
C172        C174   1.531       .  S
C172        H178   1.105       .  S
C173        H179   1.087       .  S
C173        C174   1.355       .  D
C174        C568   1.471       .  S
C175        H180   1.081       .  S
C175        C176   1.369       .  D
C176        C556   1.490       .  S
C181        C182   1.548       .  S
C181        C187   1.548       .  S
C181        C185   1.552       .  S
C181        C541   1.532       .  S
C182        H189   1.086       .  S
C182        C183   1.365       .  D
C183        C184   1.528       .  S
C183        C796   1.480       .  S
C184        C188   1.527       .  S
C184        C186   1.526       .  S
C184        H190   1.111       .  S
C185        H191   1.080       .  S
C185        C186   1.362       .  D
C186       C1012   1.473       .  S
C187        H192   1.086       .  S
C187        C188   1.362       .  D
C188        C853   1.478       .  S
C193        C194   1.547       .  S
C193        C199   1.545       .  S
C193        C197   1.551       .  S
C193        C544   1.533       .  S
C194        H201   1.086       .  S
C194        C195   1.364       .  D
C195        C196   1.531       .  S
C195        C517   1.482       .  S
C196        C200   1.531       .  S
C196        C198   1.531       .  S
C196        H202   1.111       .  S
C197        H203   1.080       .  S
C197        C198   1.364       .  D
C198        C505   1.480       .  S
C199        H204   1.086       .  S
C199        C200   1.363       .  D
C200        C529   1.478       .  S
C205        C206   1.547       .  S
C205        C211   1.554       .  S
C205        C209   1.547       .  S
C205        C493   1.538       .  S
C206        H213   1.086       .  S
C206        C207   1.362       .  D
C207        C208   1.525       .  S
C207        C772   1.474       .  S
C208        C212   1.529       .  S
C208        C210   1.532       .  S
C208        H214   1.111       .  S
C209        H215   1.085       .  S
C209        C210   1.368       .  D
C210        C865   1.486       .  S
C211        H216   1.080       .  S
C211        C212   1.366       .  D
C212        C928   1.483       .  S
C217        C218   1.547       .  S
C217        C223   1.551       .  S
C217        C221   1.554       .  S
C217        C496   1.537       .  S
C218        H225   1.085       .  S
C218        C219   1.367       .  D
C219        C220   1.528       .  S
C219        C484   1.482       .  S
C220        C224   1.523       .  S
C220        C222   1.525       .  S
C220        H226   1.111       .  S
C221        H227   1.081       .  S
C221        C222   1.363       .  D
C222        C460   1.476       .  S
C223        H228   1.086       .  S
C223        C224   1.365       .  D
C224        C472   1.477       .  S
C229        C230   1.552       .  S
C229        C235   1.543       .  S
C229        C233   1.549       .  S
C229        C445   1.536       .  S
C230        H237   1.082       .  S
C230        C231   1.365       .  D
C231        C232   1.532       .  S
C231        C964   1.485       .  S
C232        C236   1.541       .  S
C232        C234   1.530       .  S
C232        H238   1.106       .  S
C233        H239   1.086       .  S
C233        C234   1.362       .  D
C234        C817   1.479       .  S
C235        H240   1.083       .  S
C235        C236   1.368       .  D
C236        C748   1.500       .  S
C241        C242   1.553       .  S
C241        C247   1.548       .  S
C241        C245   1.543       .  S
C241        C448   1.538       .  S
C242        H249   1.080       .  S
C242        C243   1.362       .  D
C243        C244   1.533       .  S
C243        C409   1.489       .  S
C244        C248   1.544       .  S
C244        C246   1.533       .  S
C244        H250   1.104       .  S
C245        H251   1.086       .  S
C245        C246   1.357       .  D
C246        C433   1.474       .  S
C247        H252   1.085       .  S
C247        C248   1.375       .  D
C248        C424   1.504       .  S
C253        C254   1.548       .  S
C253        C259   1.557       .  S
C253        C257   1.554       .  S
C253        C397   1.545       .  S
C254        H261   1.086       .  S
C254        C255   1.365       .  D
C255        C256   1.527       .  S
C255        C832   1.480       .  S
C256        C260   1.531       .  S
C256        C258   1.525       .  S
C256        H262   1.111       .  S
C257        H263   1.080       .  S
C257        C258   1.361       .  D
C258        C880   1.479       .  S
C259        H264   1.085       .  S
C259        C260   1.373       .  D
C260        C781   1.494       .  S
C265        C266   1.549       .  S
C265        C271   1.545       .  S
C265        C269   1.551       .  S
C265        C400   1.542       .  S
C266        H273   1.086       .  S
C266        C267   1.369       .  D
C267        C268   1.536       .  S
C267        C388   1.494       .  S
C268        C272   1.534       .  S
C268        C270   1.541       .  S
C268        H274   1.107       .  S
C269        H275   1.080       .  S
C269        C270   1.369       .  D
C270        C376   1.496       .  S
C271        H276   1.086       .  S
C271        C272   1.359       .  D
C272        C361   1.479       .  S
O277       Ni285   1.925       .  S
O277        C287   1.282       .  A
O278       Ni285   1.931   1_545  S
O278        C288   1.283       .  A
O279       Ni285   1.936   1_545  S
O279        C289   1.284       .  A
O280       Ni285   1.934       .  S
O280        C290   1.284       .  A
O281       Ni286   1.902       .  S
O281        C290   1.278       .  A
O282       Ni286   1.899   1_545  S
O282        C289   1.279       .  A
O283       Ni286   1.907   1_545  S
O283        C288   1.280       .  A
O284       Ni286   1.911       .  S
O284        C287   1.280       .  A
Ni285      Ni286   2.390       .  S
C287        C469   1.472       .  S
C288        C520   1.476       .  S
C289        C373   1.477       .  S
C290        C616   1.472       .  S
O291       Ni299   1.920   1_655  S
O291        C301   1.281       .  A
O292       Ni299   1.929       .  S
O292        C302   1.282       .  A
O293       Ni299   1.942       .  S
O293        C303   1.286       .  A
O294       Ni299   1.940   1_655  S
O294        C304   1.285       .  A
O295       Ni300   1.898   1_655  S
O295        C304   1.279       .  A
O296       Ni300   1.896       .  S
O296        C303   1.276       .  A
O297       Ni300   1.913       .  S
O297        C302   1.280       .  A
O298       Ni300   1.919   1_655  S
O298        C301   1.282       .  A
Ni299      Ni300   2.389       .  S
C301        C661   1.482       .  S
C302        C364   1.470       .  S
C303        C532   1.474       .  S
C304        C421   1.483       .  S
O305       Ni313   1.940   1_445  S
O305        C315   1.285       .  A
O306       Ni313   1.938       .  S
O306        C316   1.285       .  A
O307       Ni313   1.917   1_455  S
O307        C317   1.280       .  A
O308       Ni313   1.923   1_545  S
O308        C318   1.281       .  A
O309       Ni314   1.909       .  S
O309        C318   1.279       .  A
O310       Ni314   1.914   1_465  S
O310        C317   1.282       .  A
O311       Ni314   1.899   1_565  S
O311        C316   1.278       .  A
O312       Ni314   1.904   1_455  S
O312        C315   1.278       .  A
Ni313      Ni314   2.390   1_565  S
C315        C385   1.478       .  S
C316        C580   1.477       .  S
C317        C481   1.476       .  S
C318        C436   1.465       .  S
O319       Ni327   1.939       .  S
O319        C329   1.285       .  A
O320       Ni327   1.937   1_545  S
O320        C330   1.285       .  A
O321       Ni327   1.912   1_545  S
O321        C331   1.279       .  A
O322       Ni327   1.920       .  S
O322        C332   1.280       .  A
O323       Ni328   1.910       .  S
O323        C332   1.280       .  A
O324       Ni328   1.905   1_545  S
O324        C331   1.280       .  A
O325       Ni328   1.899   1_545  S
O325        C330   1.278       .  A
O326       Ni328   1.903       .  S
O326        C329   1.278       .  A
Ni327      Ni328   2.391       .  S
C329        C712   1.479       .  S
C330        C412   1.474       .  S
C331        C652   1.464       .  S
C332        C565   1.463       .  S
O333       Ni341   1.918       .  S
O333        C343   1.281       .  A
O334       Ni341   1.918   1_465  S
O334        C344   1.279       .  A
O335       Ni341   1.931   1_565  S
O335        C345   1.284       .  A
O336       Ni341   1.928   1_455  S
O336        C346   1.283       .  A
O337       Ni342   1.899       .  S
O337        C346   1.277       .  A
O338       Ni342   1.895   1_665  S
O338        C345   1.277       .  A
O339       Ni342   1.913   1_565  S
O339        C344   1.280       .  A
O340       Ni342   1.910   1_655  S
O340        C343   1.281       .  A
Ni341      Ni342   2.391   1_655  S
C343        C673   1.472       .  S
C344        C628   1.464       .  S
C345        C724   1.475       .  S
C346        C508   1.469       .  S
O347       Ni355   1.898       .  S
O347        C357   1.278       .  A
O348       Ni355   1.895   1_455  S
O348        C358   1.278       .  A
O349       Ni355   1.908       .  S
O349        C359   1.280       .  A
O350       Ni355   1.912   1_455  S
O350        C360   1.281       .  A
O351       Ni356   1.920   1_455  S
O351        C360   1.281       .  A
O352       Ni356   1.927       .  S
O352        C359   1.282       .  A
O353       Ni356   1.929   1_455  S
O353        C358   1.283       .  A
O354       Ni356   1.928       .  S
O354        C357   1.283       .  A
Ni355      Ni356   2.391       .  S
C357        C553   1.468       .  S
C358        C601   1.471       .  S
C359        C700   1.476       .  S
C360        C457   1.472       .  S
C361        C362   1.401       .  A
C361        C366   1.406       .  A
C362        C363   1.402       .  A
C362        H367   1.082       .  S
C363        C364   1.406   1_554  A
C363        O368   1.371       .  S
C364        C365   1.402       .  A
C365        C366   1.402   1_556  A
C365        H369   1.084       .  S
C366        O370   1.371       .  S
O368        H372   0.991       .  S
O370        H371   0.990       .  S
C373        C374   1.400       .  A
C373        C378   1.407   1_556  A
C374        C375   1.395       .  A
C374        H379   1.084       .  S
C375        C376   1.411   1_556  A
C375        O380   1.371       .  S
C376        C377   1.412       .  A
C377        C378   1.407       .  A
C377        H381   1.083       .  S
C378        O382   1.371       .  S
O380        H384   0.991       .  S
O382        H383   0.992       .  S
C385        C386   1.400       .  A
C385        C390   1.408       .  A
C386        C387   1.398       .  A
C386        H391   1.085       .  S
C387        C388   1.410       .  A
C387        O392   1.369       .  S
C388        C389   1.409       .  A
C389        C390   1.410       .  A
C389        H393   1.083       .  S
C390        O394   1.371       .  S
O392        H396   0.992       .  S
O394        H395   0.991       .  S
C397        C398   1.413       .  A
C397        C402   1.413       .  A
C398        C399   1.401       .  A
C398        H403   1.075       .  S
C399        C400   1.412       .  A
C399        O404   1.373       .  S
C400        C401   1.412       .  A
C401        C402   1.407       .  A
C401        H405   1.076       .  S
C402        O406   1.372       .  S
O404        H408   0.991       .  S
O406        H407   0.991       .  S
C409        C410   1.407       .  A
C409        C414   1.408       .  A
C410        C411   1.407   1_554  A
C410        H415   1.083       .  S
C411        C412   1.409       .  A
C411        O416   1.371       .  S
C412        C413   1.399   1_556  A
C413        C414   1.396       .  A
C413        H417   1.084       .  S
C414        O418   1.368       .  S
O416        H420   0.991       .  S
O418        H419   0.992       .  S
C421        C422   1.399   1_556  A
C421        C426   1.408       .  A
C422        C423   1.394       .  A
C422        H427   1.084       .  S
C423        C424   1.415       .  A
C423        O428   1.369       .  S
C424        C425   1.413       .  A
C425        C426   1.410   1_554  A
C425        H429   1.083       .  S
C426        O430   1.371       .  S
O428        H432   0.993       .  S
O430        H431   0.991       .  S
C433        C434   1.399       .  A
C433        C438   1.407       .  A
C434        C435   1.398       .  A
C434        H439   1.082       .  S
C435        C436   1.405       .  A
C435        O440   1.372       .  S
C436        C437   1.401       .  A
C437        C438   1.406       .  A
C437        H441   1.084       .  S
C438        O442   1.377       .  S
O440        H444   0.991       .  S
O442        H443   0.992       .  S
C445        C446   1.409       .  A
C445        C450   1.413       .  A
C446        C447   1.404       .  A
C446        H451   1.077       .  S
C447        C448   1.415       .  A
C447        O452   1.373       .  S
C448        C449   1.409       .  A
C449        C450   1.399       .  A
C449        H453   1.075       .  S
C450        O454   1.373       .  S
O452        H456   0.991       .  S
O454        H455   0.991       .  S
C457        C458   1.404       .  A
C457        C462   1.407       .  A
C458        C459   1.402   1_556  A
C458        H463   1.084   1_556  S
C459        C460   1.407       .  A
C459        O464   1.371       .  S
C460        C461   1.402   1_554  A
C461        C462   1.396       .  A
C461        H465   1.084       .  S
C462        O466   1.372       .  S
O464        H468   0.991       .  S
O466        H467   0.992       .  S
C469        C470   1.404       .  A
C469        C474   1.407   1_556  A
C470        C471   1.404   1_556  A
C470        H475   1.084       .  S
C471        C472   1.407       .  A
C471        O476   1.371       .  S
C472        C473   1.402       .  A
C473        C474   1.398       .  A
C473        H477   1.084       .  S
C474        O478   1.372       .  S
O476        H480   0.991       .  S
O478        H479   0.992       .  S
C481        C482   1.406       .  A
C481        C486   1.407       .  A
C482        C483   1.404       .  A
C482        H487   1.083       .  S
C483        C484   1.408       .  A
C483        O488   1.371       .  S
C484        C485   1.404       .  A
C485        C486   1.395       .  A
C485        H489   1.084       .  S
C486        O490   1.373       .  S
O488        H492   0.991       .  S
O490        H491   0.992       .  S
C493        C494   1.411       .  A
C493        C498   1.413       .  A
C494        C495   1.402       .  A
C494        H499   1.075       .  S
C495        C496   1.413       .  A
C495        O500   1.372       .  S
C496        C497   1.410       .  A
C497        C498   1.401       .  A
C497        H501   1.076       .  S
C498        O502   1.373       .  S
O500        H504   0.992       .  S
O502        H503   0.991       .  S
C505        C506   1.401       .  A
C505        C510   1.412       .  A
C506        C507   1.395       .  A
C506        H511   1.084       .  S
C507        C508   1.408       .  A
C507        O512   1.372       .  S
C508        C509   1.401       .  A
C509        C510   1.401       .  A
C509        H513   1.084       .  S
C510        O514   1.371       .  S
O512        H516   0.992       .  S
O514        H515   0.994       .  S
C517        C518   1.405       .  A
C517        C522   1.407       .  A
C518        C519   1.405       .  A
C518        H523   1.083       .  S
C519        C520   1.409       .  A
C519        O524   1.371       .  S
C520        C521   1.402       .  A
C521        C522   1.397       .  A
C521        H525   1.084       .  S
C522        O526   1.373       .  S
O524        H528   0.991       .  S
O526        H527   0.992       .  S
C529        C530   1.405       .  A
C529        C534   1.405       .  A
C530        C531   1.406       .  A
C530        H535   1.083       .  S
C531        C532   1.408       .  A
C531        O536   1.371       .  S
C532        C533   1.404       .  A
C533        C534   1.397       .  A
C533        H537   1.084       .  S
C534        O538   1.372       .  S
O536        H540   0.991       .  S
O538        H539   0.992       .  S
C541        C542   1.409       .  A
C541        C546   1.412       .  A
C542        C543   1.400       .  A
C542        H547   1.076       .  S
C543        C544   1.412       .  A
C543        O548   1.373       .  S
C544        C545   1.410       .  A
C545        C546   1.398       .  A
C545        H549   1.075       .  S
C546        O550   1.373       .  S
O548        H552   0.991       .  S
O550        H551   0.991       .  S
C553        C554   1.397       .  A
C553        C558   1.405   1_556  A
C554        C555   1.391       .  A
C554        H559   1.084       .  S
C555        C556   1.410   1_556  A
C555        O560   1.369       .  S
C556        C557   1.409       .  A
C557        C558   1.406       .  A
C557        H561   1.083       .  S
C558        O562   1.371       .  S
O560        H564   0.992       .  S
O562        H563   0.991       .  S
C565        C566   1.402   1_556  A
C565        C570   1.404       .  A
C566        C567   1.399       .  A
C566        H571   1.084       .  S
C567        C568   1.404       .  A
C567        O572   1.371       .  S
C568        C569   1.400       .  A
C569        C570   1.400   1_554  A
C569        H573   1.083   1_554  S
C570        O574   1.372       .  S
O572        H576   0.991       .  S
O574        H575   0.992       .  S
C577        C578   1.410       .  A
C577        C582   1.411       .  A
C578        C579   1.408       .  A
C578        H583   1.083       .  S
C579        C580   1.408       .  A
C579        O584   1.371       .  S
C580        C581   1.400       .  A
C581        C582   1.396       .  A
C581        H585   1.084       .  S
C582        O586   1.371       .  S
O584        H588   0.991       .  S
O586        H587   0.993       .  S
C589        C590   1.408       .  A
C589        C594   1.414       .  A
C590        C591   1.394       .  A
C590        H595   1.074       .  S
C591        C592   1.411       .  A
C591        O596   1.373       .  S
C592        C593   1.409       .  A
C593        C594   1.403       .  A
C593        H597   1.077       .  S
C594        O598   1.373       .  S
O596        H600   0.991       .  S
O598        H599   0.991       .  S
C601        C602   1.400       .  A
C601        C606   1.405       .  A
C602        C603   1.394       .  A
C602        H607   1.084       .  S
C603        C604   1.411       .  A
C603        O608   1.370       .  S
C604        C605   1.409       .  A
C605        C606   1.403       .  A
C605        H609   1.083       .  S
C606        O610   1.371       .  S
O608        H612   0.993       .  S
O610        H611   0.991       .  S
C613        C614   1.410       .  A
C613        C618   1.409       .  A
C614        C615   1.410       .  A
C614        H619   1.083       .  S
C615        C616   1.407       .  A
C615        O620   1.371       .  S
C616        C617   1.397       .  A
C617        C618   1.394       .  A
C617        H621   1.085       .  S
C618        O622   1.370       .  S
O620        H624   0.991       .  S
O622        H623   0.992       .  S
C625        C626   1.399       .  A
C625        C630   1.406       .  A
C626        C627   1.396       .  A
C626        H631   1.084       .  S
C627        C628   1.405       .  A
C627        O632   1.372       .  S
C628        C629   1.402       .  A
C629        C630   1.402       .  A
C629        H633   1.084       .  S
C630        O634   1.371       .  S
O632        H636   0.991       .  S
O634        H635   0.991       .  S
C637        C638   1.410       .  A
C637        C642   1.412       .  A
C638        C639   1.400       .  A
C638        H643   1.076       .  S
C639        C640   1.412       .  A
C639        O644   1.374       .  S
C640        C641   1.410       .  A
C641        C642   1.401       .  A
C641        H645   1.076       .  S
C642        O646   1.372       .  S
O644        H648   0.992       .  S
O646        H647   0.992       .  S
C649        C650   1.400       .  A
C649        C654   1.408       .  A
C650        C651   1.392       .  A
C650        H655   1.084       .  S
C651        C652   1.406       .  A
C651        O656   1.372       .  S
C652        C653   1.403       .  A
C653        C654   1.400       .  A
C653        H657   1.084       .  S
C654        O658   1.371       .  S
O656        H660   0.992       .  S
O658        H659   0.992       .  S
C661        C662   1.407       .  A
C661        C666   1.408       .  A
C662        C663   1.405       .  A
C662        H667   1.084       .  S
C663        C664   1.408       .  A
C663        O668   1.371       .  S
C664        C665   1.405       .  A
C665        C666   1.398       .  A
C665        H669   1.084       .  S
C666        O670   1.372       .  S
O668        H672   0.991       .  S
O670        H671   0.992       .  S
C673        C674   1.402       .  A
C673        C678   1.409       .  A
C674        C675   1.397       .  A
C674        H679   1.084       .  S
C675        C676   1.408       .  A
C675        O680   1.374       .  S
C676        C677   1.404       .  A
C677        C678   1.401       .  A
C677        H681   1.084       .  S
C678        O682   1.371       .  S
O680        H684   0.992       .  S
O682        H683   0.992       .  S
C685        C686   1.411       .  A
C685        C690   1.412       .  A
C686        C687   1.395       .  A
C686        H691   1.074       .  S
C687        C688   1.409       .  A
C687        O692   1.373       .  S
C688        C689   1.411       .  A
C689        C690   1.402       .  A
C689        H693   1.076       .  S
C690        O694   1.373       .  S
O692        H696   0.992       .  S
O694        H695   0.991       .  S
C697        C698   1.402       .  A
C697        C702   1.411       .  A
C698        C699   1.393       .  A
C698        H703   1.084       .  S
C699        C700   1.407       .  A
C699        O704   1.372       .  S
C700        C701   1.405       .  A
C701        C702   1.406       .  A
C701        H705   1.083       .  S
C702        O706   1.371       .  S
O704        H708   0.992       .  S
O706        H707   0.992       .  S
C709        C710   1.401       .  A
C709        C714   1.412       .  A
C710        C711   1.396       .  A
C710        H715   1.084       .  S
C711        C712   1.409       .  A
C711        O716   1.373       .  S
C712        C713   1.404       .  A
C713        C714   1.408       .  A
C713        H717   1.083       .  S
C714        O718   1.371       .  S
O716        H720   0.992       .  S
O718        H719   0.992       .  S
C721        C722   1.400       .  A
C721        C726   1.409       .  A
C722        C723   1.392       .  A
C722        H727   1.084       .  S
C723        C724   1.410       .  A
C723        O728   1.372       .  S
C724        C725   1.405       .  A
C725        C726   1.404       .  A
C725        H729   1.083       .  S
C726        O730   1.371       .  S
O728        H732   0.991       .  S
O730        H731   0.991       .  S
C733        C734   1.408       .  A
C733        C738   1.412       .  A
C734        C735   1.400       .  A
C734        H739   1.076       .  S
C735        C736   1.413       .  A
C735        O740   1.373       .  S
C736        C737   1.409       .  A
C737        C738   1.396       .  A
C737        H741   1.075       .  S
C738        O742   1.373       .  S
O740        H744   0.992       .  S
O742        H743   0.992       .  S
C745        C746   1.404       .  A
C745        C750   1.406       .  A
C746        C747   1.409       .  A
C746        H751   1.083       .  S
C747        C748   1.417       .  A
C747        O752   1.371       .  S
C748        C749   1.405       .  A
C749        C750   1.392       .  A
C749        H753   1.077       .  S
C750        O754   1.374       .  S
O752        H756   0.992       .  S
O754        H755   0.992       .  S
C757        C758   1.401       .  A
C757        C762   1.409       .  A
C758        C759   1.395       .  A
C758        H763   1.084       .  S
C759        C760   1.409       .  A
C759        O764   1.372       .  S
C760        C761   1.409       .  A
C761        C762   1.411       .  A
C761        H765   1.083       .  S
C762        O766   1.371       .  S
O764        H768   0.992       .  S
O766        H767   0.991       .  S
C769        C770   1.403       .  A
C769        C774   1.406       .  A
C770        C771   1.405       .  A
C770        H775   1.084       .  S
C771        C772   1.407       .  A
C771        O776   1.371       .  S
C772        C773   1.400       .  A
C773        C774   1.397       .  A
C773        H777   1.084       .  S
C774        O778   1.371       .  S
O776        H780   0.993       .  S
O778        H779   0.992       .  S
C781        C782   1.404       .  A
C781        C786   1.412       .  A
C782        C783   1.398       .  A
C782        H787   1.084       .  S
C783        C784   1.407       .  A
C783        O788   1.370       .  S
C784        C785   1.406       .  A
C785        C786   1.412       .  A
C785        H789   1.083       .  S
C786        O790   1.371       .  S
O788        H792   0.991       .  S
O790        H791   0.991       .  S
C793        C794   1.401       .  A
C793        C798   1.409       .  A
C794        C795   1.395       .  A
C794        H799   1.083       .  S
C795        C796   1.407       .  A
C795        O800   1.372       .  S
C796        C797   1.405       .  A
C797        C798   1.407       .  A
C797        H801   1.083       .  S
C798        O802   1.371       .  S
O800        H804   0.992       .  S
O802        H803   0.992       .  S
C805        C806   1.405       .  A
C805        C810   1.408       .  A
C806        C807   1.408       .  A
C806        H811   1.083       .  S
C807        C808   1.412       .  A
C807        O812   1.371       .  S
C808        C809   1.404       .  A
C809        C810   1.396       .  A
C809        H813   1.082       .  S
C810        O814   1.373       .  S
O812        H816   0.992       .  S
O814        H815   0.992       .  S
C817        C818   1.401       .  A
C817        C822   1.407       .  A
C818        C819   1.398       .  A
C818        H823   1.082       .  S
C819        C820   1.406       .  A
C819        O824   1.372       .  S
C820        C821   1.405       .  A
C821        C822   1.405       .  A
C821        H825   1.084       .  S
C822        O826   1.371       .  S
O824        H828   0.992       .  S
O826        H827   0.991       .  S
C829        C830   1.406       .  A
C829        C834   1.408       .  A
C830        C831   1.408       .  A
C830        H835   1.083       .  S
C831        C832   1.409       .  A
C831        O836   1.371       .  S
C832        C833   1.400       .  A
C833        C834   1.393       .  A
C833        H837   1.084       .  S
C834        O838   1.373       .  S
O836        H840   0.991       .  S
O838        H839   0.992       .  S
C841        C842   1.405       .  A
C841        C846   1.406       .  A
C842        C843   1.406       .  A
C842        H847   1.083       .  S
C843        C844   1.407       .  A
C843        O848   1.371       .  S
C844        C845   1.400       .  A
C845        C846   1.396       .  A
C845        H849   1.084       .  S
C846        O850   1.373       .  S
O848        H852   0.991       .  S
O850        H851   0.992       .  S
C853        C854   1.404       .  A
C853        C858   1.406       .  A
C854        C855   1.405       .  A
C854        H859   1.084       .  S
C855        C856   1.409       .  A
C855        O860   1.371       .  S
C856        C857   1.401       .  A
C857        C858   1.396       .  A
C857        H861   1.084       .  S
C858        O862   1.373       .  S
O860        H864   0.992       .  S
O862        H863   0.992       .  S
C865        C866   1.402       .  A
C865        C870   1.412       .  A
C866        C867   1.396       .  A
C866        H871   1.083       .  S
C867        C868   1.407       .  A
C867        O872   1.372       .  S
C868        C869   1.402       .  A
C869        C870   1.406       .  A
C869        H873   1.083       .  S
C870        O874   1.371       .  S
O872        H876   0.992       .  S
O874        H875   0.992       .  S
C877        C878   1.401       .  A
C877        C882   1.408       .  A
C878        C879   1.392       .  A
C878        H883   1.083       .  S
C879        C880   1.407       .  A
C879        O884   1.372       .  S
C880        C881   1.406       .  A
C881        C882   1.404       .  A
C881        H885   1.083       .  S
C882        O886   1.371       .  S
O884        H888   0.991       .  S
O886        H887   0.992       .  S
C889        C890   1.401       .  A
C889        C894   1.405       .  A
C890        C891   1.399       .  A
C890        H895   1.084       .  S
C891        C892   1.406       .  A
C891        O896   1.371       .  S
C892        C893   1.400       .  A
C893        C894   1.398       .  A
C893        H897   1.084       .  S
C894        O898   1.372       .  S
O896        H900   0.991       .  S
O898        H899   0.991       .  S
C901        C902   1.400       .  A
C901        C906   1.405       .  A
C902        C903   1.394       .  A
C902        H907   1.083       .  S
C903        C904   1.408       .  A
C903        O908   1.374       .  S
C904        C905   1.408       .  A
C905        C906   1.403       .  A
C905        H909   1.083       .  S
C906        O910   1.371       .  S
O908        H912   0.992       .  S
O910        H911   0.991       .  S
C913        C914   1.403       .  A
C913        C918   1.408       .  A
C914        C915   1.391       .  A
C914        H919   1.084       .  S
C915        C916   1.406       .  A
C915        O920   1.372       .  S
C916        C917   1.405       .  A
C917        C918   1.403       .  A
C917        H921   1.083       .  S
C918        O922   1.371       .  S
O920        H924   0.992       .  S
O922        H923   0.991       .  S
C925        C926   1.404       .  A
C925        C930   1.408       .  A
C926        C927   1.403       .  A
C926        H931   1.083       .  S
C927        C928   1.411       .  A
C927        O932   1.371       .  S
C928        C929   1.403       .  A
C929        C930   1.394       .  A
C929        H933   1.084       .  S
C930        O934   1.372       .  S
O932        H936   0.992       .  S
O934        H935   0.991       .  S
C937        C938   1.403       .  A
C937        C942   1.407       .  A
C938        C939   1.406       .  A
C938        H943   1.083       .  S
C939        C940   1.412       .  A
C939        O944   1.371       .  S
C940        C941   1.403       .  A
C941        C942   1.396       .  A
C941        H945   1.082       .  S
C942        O946   1.373       .  S
O944        H948   0.992       .  S
O946        H947   0.992       .  S
C949        C950   1.401       .  A
C949        C954   1.405       .  A
C950        C951   1.400       .  A
C950        H955   1.084       .  S
C951        C952   1.407       .  A
C951        O956   1.371       .  S
C952        C953   1.397       .  A
C953        C954   1.392       .  A
C953        H957   1.084       .  S
C954        O958   1.372       .  S
O956        H960   0.991       .  S
O958        H959   0.992       .  S
C961        C962   1.402       .  A
C961        C966   1.408       .  A
C962        C963   1.397       .  A
C962        H967   1.084       .  S
C963        C964   1.409       .  A
C963        O968   1.373       .  S
C964        C965   1.406       .  A
C965        C966   1.406       .  A
C965        H969   1.083       .  S
C966        O970   1.371       .  S
O968        H972   0.992       .  S
O970        H971   0.992       .  S
C973        C974   1.401       .  A
C973        C978   1.408       .  A
C974        C975   1.393       .  A
C974        H979   1.084       .  S
C975        C976   1.409       .  A
C975        O980   1.372       .  S
C976        C977   1.404       .  A
C977        C978   1.401       .  A
C977        H981   1.083       .  S
C978        O982   1.372       .  S
O980        H984   0.991       .  S
O982        H983   0.993       .  S
C985        C986   1.403       .  A
C985        C990   1.407       .  A
C986        C987   1.404       .  A
C986        H991   1.083       .  S
C987        C988   1.412       .  A
C987        O992   1.371       .  S
C988        C989   1.401       .  A
C989        C990   1.392       .  A
C989        H993   1.082       .  S
C990        O994   1.372       .  S
O992        H996   0.992       .  S
O994        H995   0.992       .  S
C997        C998   1.399       .  A
C997       C1002   1.409       .  A
C998        C999   1.391       .  A
C998       H1003   1.083       .  S
C999       C1000   1.407       .  A
C999       O1004   1.372       .  S
C1000      C1001   1.406       .  A
C1001      C1002   1.407       .  A
C1001      H1005   1.083       .  S
C1002      O1006   1.371       .  S
O1004      H1008   0.992       .  S
O1006      H1007   0.991       .  S
C1009      C1010   1.403       .  A
C1009      C1014   1.407       .  A
C1010      C1011   1.402       .  A
C1010      H1015   1.084       .  S
C1011      C1012   1.408       .  A
C1011      O1016   1.371       .  S
C1012      C1013   1.400       .  A
C1013      C1014   1.393       .  A
C1013      H1017   1.084       .  S
C1014      O1018   1.373       .  S
O1016      H1020   0.991       .  S
O1018      H1019   0.992       .  S
C1021      C1022   1.405       .  A
C1021      C1026   1.404       .  A
C1022      C1023   1.406       .  A
C1022      H1027   1.084       .  S
C1023      C1024   1.410       .  A
C1023      O1028   1.371       .  S
C1024      C1025   1.402       .  A
C1025      C1026   1.392       .  A
C1025      H1029   1.082       .  S
C1026      O1030   1.373       .  S
O1028      H1032   0.991       .  S
O1030      H1031   0.992       .  S
