geometry optimzed in LAMMPS
_audit_creation_date              2020-12-01 
_audit_creation_method            'lammps2cif' 
_symmetry_space_group_name_H-M    'P1' 
_symmetry_Int_Tables_number       1 
_symmetry_cell_setting            triclinic 
loop_ 
_symmetry_equiv_pos_as_xyz 
  x,y,z 
_cell_length_a                    39.36124807 
_cell_length_b                    40.296061650997494 
_cell_length_c                    39.36210695831935 
_cell_angle_alpha                 97.31314458015211 
_cell_angle_beta                  89.98978266852596 
_cell_angle_gamma                 89.97328268349662 
loop_ 
_atom_site_label 
_atom_site_type_symbol 
_atom_site_fract_x 
_atom_site_fract_y 
_atom_site_fract_z 
_atom_site_charge 
C1          C  0.10979219  0.09991169  0.09304448     0.88600
C2          C  0.13517798  0.07823130  0.11280327    -0.51600
C3          C  0.15629186  0.09695673  0.13658443     0.11500
C4          C  0.14974107  0.13413273  0.13835106     0.22500
C5          C  0.09104939  0.12243901  0.12209446    -0.49400
C6          C  0.11229932  0.14051676  0.14509967     0.11600
C7          C  0.13373095  0.12515473  0.07812123    -0.51900
C8          C  0.15419969  0.14274109  0.10238555     0.12200
H9          H  0.13667317  0.05117275  0.10770147     0.16700
H10         H  0.16628231  0.14924186  0.15745401     0.02500
H11         H  0.06390173  0.12714004  0.12165081     0.17000
H12         H  0.13275650  0.13024224  0.05171149     0.16800
C13         C  0.10720047  0.23274993  0.20178985     0.32100
C14         C  0.10529463  0.28989105  0.24552697     0.32100
C15         C  0.11883891  0.26384365  0.18610142    -0.04100
C16         C  0.07281128  0.24296918  0.21628788    -0.04800
C17         C  0.12872560  0.23212968  0.23438788    -0.04700
C18         C  0.11844588  0.29365954  0.20946749    -0.04100
C19         C  0.07172662  0.27241719  0.23843364    -0.04800
C20         C  0.12679373  0.26189205  0.25823621    -0.04700
C21         C  0.10972909  0.31917306  0.19083207    -0.30100
N22         N  0.10430829  0.30661178  0.15798666     0.16400
C23         C  0.10932088  0.27317862  0.15461455    -0.30100
H24         H  0.10263143  0.25626533  0.13200135     0.18300
C25         C  0.03989287  0.27584959  0.25146605    -0.29100
N26         N  0.51969584  0.24757442  0.23124646     0.15100
C27         C  0.04168200  0.22855594  0.21592541    -0.29100
C28         C  0.12246004  0.25078895  0.29011728    -0.29400
N29         N  0.12260080  0.21700646  0.28653493     0.15600
H30         H  0.11314835  0.26612218  0.31280323     0.18200
C31         C  0.12761414  0.20563735  0.25338054    -0.29400
H32         H  0.12300718  0.17988853  0.24273168     0.18200
H33         H  0.53113404  0.20400906  0.19450610     0.18200
H34         H  0.10329674  0.34451462  0.20149378     0.18300
H35         H  0.52937585  0.29394903  0.26458956     0.18200
C36         C  0.10942684  0.42398227  0.35460014     0.88600
C37         C  0.13530266  0.44396132  0.33324522    -0.51600
C38         C  0.15603680  0.42372495  0.31011063     0.11500
C39         C  0.14847191  0.38693404  0.31055487     0.22500
C40         C  0.09000665  0.40060442  0.32670793    -0.52300
C41         C  0.11080310  0.38115075  0.30425638     0.11600
C42         C  0.13292628  0.39947578  0.37077797    -0.51900
C43         C  0.15288227  0.38049370  0.34729369     0.12200
H44         H  0.13746515  0.47101700  0.33699825     0.16700
H45         H  0.16463389  0.37043332  0.29225383     0.02500
H46         H  0.06268949  0.39698803  0.32727995     0.17000
H47         H  0.13237154  0.39615844  0.39771913     0.16800
C48         C  0.23807484  0.09172920  0.20522017     0.32100
C49         C  0.28813971  0.10023821  0.25478928     0.32100
C50         C  0.22797018  0.08510113  0.24038725    -0.04100
C51         C  0.26948678  0.06881944  0.19879105    -0.04800
C52         C  0.25370481  0.12716163  0.21173435    -0.04700
C53         C  0.25300773  0.08908935  0.26559000    -0.04100
C54         C  0.29617089  0.07513914  0.22355659    -0.04800
C55         C  0.28097931  0.13132645  0.23654126    -0.04700
C56         C  0.24179111  0.07226288  0.29159028    -0.30100
N57         N  0.21109086  0.05873370  0.28268222     0.16400
C58         C  0.20322820  0.06531361  0.25098419    -0.30100
H59         H  0.17979655  0.05819881  0.23755396     0.18300
C60         C  0.31259694  0.04625961  0.22623895    -0.29100
N61         N  0.29564455  0.52028985  0.21019398     0.15100
C62         C  0.26857796  0.03446579  0.19235364    -0.29100
C63         C  0.30669043  0.14649351  0.21997556    -0.29400
N64         N  0.29674538  0.15053640  0.18793368     0.15600
H65         H  0.33317038  0.14432546  0.22676641     0.18200
C66         C  0.26381074  0.14258446  0.18440240    -0.29400
H67         H  0.25172801  0.13771300  0.15948118     0.18200
H68         H  0.24984167  0.51342297  0.18047542     0.18200
H69         H  0.25422051  0.07135261  0.31599315     0.18300
H70         H  0.32794273  0.54435691  0.24829602     0.18200
C71         C  0.39324050  0.12586509  0.05752299     0.88600
C72         C  0.36997907  0.14820002  0.03667948    -0.51600
C73         C  0.35099824  0.17219132  0.05711288     0.11500
C74         C  0.35728999  0.17170402  0.09495146     0.22500
C75         C  0.41439106  0.15151817  0.08189470    -0.52300
C76         C  0.39506001  0.17491899  0.10168117     0.11600
C77         C  0.36820178  0.11195115  0.08262436    -0.51900
C78         C  0.34991338  0.13646158  0.10192151     0.12200
H79         H  0.36805058  0.14451051  0.00895430     0.16700
H80         H  0.34215241  0.19095743  0.11132371     0.02500
H81         H  0.44132971  0.14839168  0.08651311     0.17000
H82         H  0.36739709  0.08588727  0.08694615     0.16800
C83         C  0.10919059  0.11469504  0.39294389     0.88600
C84         C  0.08852232  0.13551675  0.36943539    -0.51600
C85         C  0.10746306  0.14501766  0.34291122     0.11500
C86         C  0.14387581  0.13214612  0.34146767     0.22500
C87         C  0.12378658  0.08557817  0.36906241    -0.52300
C88         C  0.14186359  0.09459313  0.34329074     0.11600
C89         C  0.14063013  0.13835567  0.40343029    -0.51900
C90         C  0.15828234  0.14796579  0.37547467     0.12200
H91         H  0.06344252  0.14560291  0.37589083     0.16700
H92         H  0.15849148  0.13852523  0.31895348     0.02500
H93         H  0.12168866  0.05937108  0.37279029     0.17000
H94         H  0.14621617  0.14848248  0.42970409     0.16800
C95         C  0.39790657  0.27708991  0.25128128     0.32100
C96         C  0.39922340  0.23024477  0.19576051     0.32100
C97         C  0.38356876  0.28891460  0.21853391    -0.04100
C98         C  0.43247194  0.26388335  0.24006783    -0.04800
C99         C  0.37835958  0.24474984  0.25548613    -0.04700
C100        C  0.38345917  0.26381263  0.18978487    -0.04100
C101        C  0.43312362  0.24020806  0.21146514    -0.04800
C102        C  0.37998688  0.21940462  0.22658492    -0.04700
C103        C  0.38916266  0.27962441  0.16132261    -0.30100
N104        N  0.39383792  0.31240913  0.17105751     0.16400
C105        C  0.39100996  0.31857644  0.20550661    -0.30100
H106        H  0.39841699  0.34186268  0.22047753     0.18300
C107        C  0.96749670  0.22971691  0.21362577    -0.29100
N108        N  0.98661261  0.24671114  0.23864901     0.15100
C109        C  0.96690907  0.26813380  0.25922527    -0.29100
C110        C  0.38620425  0.18980949  0.24025186    -0.29400
N111        N  0.38723791  0.19601846  0.27473721     0.15600
H112        H  0.39559016  0.16693953  0.22586798     0.18200
C113        C  0.38155905  0.22868528  0.28418941    -0.29400
H114        H  0.38668143  0.24107066  0.30975134     0.18200
H115        H  0.97546693  0.28584469  0.28045211     0.18200
H116        H  0.39500053  0.26728719  0.13590681     0.18300
H117        H  0.97670855  0.21235242  0.19242035     0.18200
C118        C  0.41015180  0.42146326  0.07090523     0.88600
C119        C  0.39061091  0.40285634  0.04107076    -0.51600
C120        C  0.36908352  0.37987231  0.05018266     0.11500
C121        C  0.36833764  0.37607445  0.08841883     0.22500
C122        C  0.38119076  0.43524301  0.09773468    -0.52300
C123        C  0.35937645  0.41024399  0.10727618     0.11600
C124        C  0.42731331  0.39421511  0.08931863    -0.51900
C125        C  0.40505948  0.37101515  0.09879382     0.12200
H126        H  0.39314980  0.40786657  0.01466754     0.16700
H127        H  0.35100701  0.35588749  0.09471118     0.02500
H128        H  0.37963091  0.46117008  0.10909766     0.17000
H129        H  0.45362529  0.39560477  0.09767320     0.16800
C130        C  0.40882012  0.08970616  0.37606309     0.88600
C131        C  0.38738340  0.10807694  0.40467242    -0.51600
C132        C  0.36560137  0.13006409  0.39399663     0.11500
C133        C  0.36629593  0.13292370  0.35565972     0.22500
C134        C  0.38169459  0.07435104  0.34803490    -0.52300
C135        C  0.35951536  0.09824952  0.33697505     0.11600
C136        C  0.42585706  0.11727078  0.35793299    -0.51900
C137        C  0.40312229  0.13931654  0.34697507     0.12200
H138        H  0.38963722  0.10441712  0.43149416     0.16700
H139        H  0.34856578  0.15226313  0.34811300     0.02500
H140        H  0.38174206  0.04830566  0.33690284     0.17000
H141        H  0.45255187  0.11686902  0.35092267     0.16800
C142        C  0.23795041  0.42363744  0.23963718     0.32100
C143        C  0.28571212  0.40992980  0.18802819     0.32100
C144        C  0.22598486  0.42651918  0.20411223    -0.04100
C145        C  0.26974727  0.44666204  0.24190431    -0.04800
C146        C  0.25343456  0.38810073  0.23582295    -0.04700
C147        C  0.24985618  0.42003562  0.17765831    -0.04100
C148        C  0.29515459  0.43744532  0.21638276    -0.04800
C149        C  0.27953515  0.38130262  0.20996290    -0.04700
C150        C  0.23843330  0.43692016  0.15166280    -0.30100
N151        N  0.20913484  0.45281688  0.16177160     0.16400
C152        C  0.20223746  0.44764783  0.19400270    -0.30100
H153        H  0.18026471  0.45735920  0.20862749     0.18300
C154        C  0.31313911  0.96690447  0.20963614    -0.29100
N155        N  0.29299561  0.99156454  0.22226464     0.15100
C156        C  0.26766679  0.98052063  0.24107676    -0.29100
C157        C  0.30594507  0.36753862  0.22685159    -0.29400
N158        N  0.29737844  0.36667696  0.25992249     0.15600
H159        H  0.33213882  0.36819571  0.21847396     0.18200
C160        C  0.26472367  0.37539036  0.26434525    -0.29400
H161        H  0.25383324  0.38262312  0.28953813     0.18200
H162        H  0.24543495  0.99512205  0.24950625     0.18200
H163        H  0.25010068  0.43689569  0.12675049     0.18300
H164        H  0.33156594  0.96928232  0.18965964     0.18200
C165        C  0.10964325  0.40691151  0.04864858     0.88600
C166        C  0.12130412  0.43461892  0.07597705    -0.51600
C167        C  0.13596306  0.42378438  0.10300567     0.11500
C168        C  0.13721500  0.38578433  0.10236364     0.22500
C169        C  0.14195478  0.38368788  0.04080787    -0.52300
C170        C  0.15588158  0.37212266  0.06973448     0.11600
C171        C  0.08571522  0.38481125  0.06774090    -0.51900
C172        C  0.10087326  0.37364468  0.09560937     0.12200
H173        H  0.12073473  0.46114321  0.07339689     0.16700
H174        H  0.14867788  0.37766240  0.12581578     0.02500
H175        H  0.15076472  0.37609084  0.51454387     0.17000
H176        H  0.06063948  0.37675539  0.05866063     0.16800
C177        C  0.39757906  0.38869522  0.38594551     0.88600
C178        C  0.37335314  0.36854851  0.40783754    -0.51600
C179        C  0.35230859  0.34599754  0.38826209     0.11500
C180        C  0.35723962  0.34592663  0.35018234     0.22500
C181        C  0.41609054  0.36111381  0.36115341    -0.52300
C182        C  0.39435507  0.33926295  0.34235281     0.11600
C183        C  0.37335231  0.40455124  0.36161095    -0.51900
C184        C  0.35271076  0.38164546  0.34321575     0.12200
H185        H  0.37294016  0.37200847  0.43562852     0.16700
H186        H  0.34010778  0.32799411  0.33451237     0.02500
H187        H  0.44319272  0.36127112  0.35612263     0.17000
H188        H  0.37470131  0.43054002  0.35705658     0.16800
C189        C  0.27385927  0.24358272  0.05830046     0.32100
C190        C  0.22685858  0.29351942  0.07325750     0.32100
C191        C  0.28623997  0.27850254  0.05543605    -0.04100
C192        C  0.24177573  0.24107595  0.03558157    -0.04800
C193        C  0.25864064  0.24637753  0.09477913    -0.04700
C194        C  0.26227053  0.30410304  0.06282538    -0.04100
C195        C  0.21717696  0.26645394  0.04468257    -0.04800
C196        C  0.23285633  0.27174052  0.10232575    -0.04700
C197        C  0.27141914  0.32900872  0.04378763    -0.30100
N198        N  0.29972705  0.31958803  0.02580563     0.16400
C199        C  0.30845324  0.28868842  0.03207321    -0.30100
H200        H  0.32997462  0.27463209  0.02071178     0.18300
C201        C  0.20335506  0.26985559  0.51586094    -0.29100
N202        N  0.21946928  0.25096916  0.49090165     0.15100
C203        C  0.24391762  0.23249350  0.50355427    -0.29100
C204        C  0.20620320  0.25521275  0.11617884    -0.29400
N205        N  0.21420731  0.22263824  0.11638926     0.15600
H206        H  0.18015105  0.26393453  0.11620308     0.18200
C207        C  0.24672875  0.21806534  0.10685177    -0.29400
H208        H  0.25721496  0.19340304  0.09884104     0.18200
H209        H  0.26443314  0.22034671  0.48839156     0.18200
H210        H  0.25845751  0.35265727  0.04331218     0.18300
H211        H  0.18777919  0.29113647  0.51171283     0.18200
C212        C  0.27589382  0.27567640  0.38839581     0.32100
C213        C  0.22759924  0.22746341  0.37297704     0.32100
C214        C  0.28833811  0.24007029  0.38729371    -0.04100
C215        C  0.24572099  0.27683003  0.41331148    -0.04800
C216        C  0.25822302  0.27606742  0.35345012    -0.04700
C217        C  0.26344397  0.21526542  0.37955873    -0.04100
C218        C  0.22033264  0.25235633  0.40411744    -0.04800
C219        C  0.23189445  0.25142247  0.34569949    -0.04700
C220        C  0.27260681  0.18899110  0.39662643    -0.30100
N221        N  0.30148740  0.19681860  0.41401617     0.16400
C222        C  0.31123735  0.22774304  0.40883529    -0.30100
H223        H  0.33316629  0.24075319  0.42059266     0.18300
C224        C  0.20459829  0.24499744  0.43272756    -0.29100
N225        N  0.22110187  0.26127034  0.45896206     0.15100
C226        C  0.24619644  0.28035470  0.44839177    -0.29100
C227        C  0.20471665  0.26914804  0.33463026    -0.29400
N228        N  0.21309783  0.30172291  0.33577019     0.15600
H229        H  0.17865430  0.26071152  0.33540731     0.18200
C230        C  0.24589623  0.30557023  0.34438010    -0.29400
H231        H  0.25685504  0.32980259  0.35335442     0.18200
H232        H  0.26654867  0.29122256  0.46464929     0.18200
H233        H  0.25871600  0.16584032  0.39695623     0.18300
H234        H  0.18782094  0.22407439  0.43486887     0.18200
C235        C  0.09360592  0.42386779  0.01946687     0.44600
N236        N  0.05079026  0.44644460  0.99561286     0.03500
C237        C  0.05278954  0.10286451  0.42840488    -0.04400
H238        H  0.03885289  0.11725915  0.05930007     0.09000
C239        C  0.40879730  0.06203059  0.02509629    -0.04700
Co240      Co  0.06939534  0.01272042  0.46852094     0.74200
N241        N  0.04295158  0.07215126  0.02293951    -0.23900
Co242      Co  0.00284880  0.07154462  0.47542149     0.74100
C243        C  0.41597541  0.09780717  0.03724734     0.44700
N244        N  0.44651430  0.47229258  0.01186118     0.03100
N245        N  0.46069145  0.07260265  0.01223262     0.03200
N246        N  0.09693501  0.06827880  0.42944798    -0.44800
H247        H  0.12612007  0.47077958  0.01432125     0.09000
N248        N  0.06720244  0.04880102  0.01953972     0.03500
N249        N  0.46646863  0.06457767  0.43959544     0.03200
C250        C  0.43469990  0.06816681  0.39345085     0.44800
N251        N  0.47100277  0.44934265  0.00832829    -0.23400
C252        C  0.09254115  0.47560275  0.40369094    -0.04300
N253        N  0.06104185  0.41928016  0.00884848    -0.44500
N254        N  0.46087886  0.08233864  0.41363304    -0.44700
C255        C  0.08491585  0.44391719  0.38223576     0.44600
N256        N  0.06922804  0.05458844  0.44100836     0.03500
N257        N  0.46862613  0.44147448  0.42970508    -0.23400
N258        N  0.07405210  0.47005920  0.99739049    -0.23900
N259        N  0.44179892  0.46131294  0.43446713     0.03100
H260        H  0.47422105  0.38999710  0.40743241     0.09000
H261        H  0.40267917  0.02325509  0.40506478     0.09000
N262        N  0.04301398  0.07493019  0.44152987    -0.23900
N263        N  0.43758433  0.04860278  0.00961105    -0.23600
N264        N  0.04848226  0.45305831  0.42608678     0.03500
C265        C  0.08425054  0.08149599  0.06549201     0.44900
C266        C  0.46637425  0.43065033  0.03434039    -0.04800
N267        N  0.44467171  0.03928946  0.43835035    -0.23600
H268        H  0.38431330  0.04977340  0.02388923     0.09000
N269        N  0.09172204  0.05386978  0.04322933    -0.44800
H270        H  0.48082835  0.40840085  0.03744013     0.09000
C271        C  0.42208977  0.41511718  0.40544461     0.44700
C272        C  0.10191174  0.45802357  0.01152397    -0.04300
Co273      Co  0.51083584  0.44740071  0.46285855     0.73800
N274        N  0.42575919  0.46977203  0.03819200    -0.44500
C275        C  0.08925243  0.09916056  0.42077944     0.45000
N276        N  0.05764265  0.43121640  0.39876930    -0.44500
Co277      Co  0.44433760  0.00686370  0.47632415     0.73900
C278        C  0.42426075  0.03959861  0.41086158    -0.04800
C279        C  0.05195449  0.09405647  0.05094841    -0.04400
N280        N  0.06937248  0.47931167  0.42936144    -0.23900
N281        N  0.44891831  0.10159418  0.02826948    -0.44700
H282        H  0.03752936  0.12523018  0.42876938     0.09000
C283        C  0.45884077  0.41240625  0.41123196    -0.04800
Cl284      Cl  0.00592680  0.00962675  0.46870739    -0.47800
C285        C  0.43612745  0.44420421  0.05504740     0.44700
H286        H  0.11418272  0.49180944  0.40187620     0.09000
N287        N  0.41375077  0.44642560  0.42054580    -0.44500
C288        C  0.30308192  0.30220917  0.39678968    -0.11100
C289        C  0.32588004  0.32329866  0.39881726    -0.12700
C290        C  0.18184468  0.34541925  0.07157815    -0.11100
C291        C  0.20163692  0.32252951  0.07618195    -0.12700
C292        C  0.31959657  0.37695387  0.28678207    -0.11100
C293        C  0.33537925  0.38577450  0.31236099    -0.12700
C294        C  0.15816286  0.44538296  0.12330916    -0.11100
C295        C  0.18223627  0.45463056  0.13985426    -0.12700
C296        C  0.34442652  0.15095696  0.41657082    -0.11100
C297        C  0.32397584  0.17263979  0.42185671    -0.12700
C298        C  0.34690574  0.36150997  0.02647826    -0.11100
C299        C  0.32426080  0.34244369  0.01942479    -0.12700
C300        C  0.33320623  0.41140381  0.13558283    -0.11100
C301        C  0.31192637  0.40756340  0.15837998    -0.12700
C302        C  0.40000967  0.30154862  0.28274154    -0.11100
C303        C  0.40200894  0.31876677  0.31027997    -0.12700
C304        C  0.40099519  0.17520911  0.29712891    -0.11100
C305        C  0.40880711  0.15893716  0.31953805    -0.12700
C306        C  0.41095288  0.35128191  0.12618018    -0.11100
C307        C  0.40521911  0.33434472  0.14862204    -0.12700
C308        C  0.20189491  0.19911774  0.36985505    -0.11100
C309        C  0.18270029  0.17594825  0.37465196    -0.12700
C310        C  0.30093389  0.21646660  0.05016455    -0.11100
C311        C  0.32400338  0.19539555  0.04782922    -0.12700
C312        C  0.40264663  0.20643884  0.16393077    -0.11100
C313        C  0.40446593  0.19143452  0.13524623    -0.12700
C314        C  0.31486754  0.10016005  0.28363894    -0.11100
C315        C  0.33524971  0.09598614  0.30705757    -0.12700
C316        C  0.18521093  0.05928439  0.30616179    -0.11100
C317        C  0.16280121  0.07096881  0.32383012    -0.12700
C318        C  0.31766707  0.14179335  0.15954392    -0.11100
C319        C  0.33250483  0.13356013  0.13316942    -0.12700
C320        C  0.17264961  0.35196159  0.35262539    -0.11100
C321        C  0.19029126  0.32782146  0.34524341    -0.12700
C322        C  0.20970051  0.43057220  0.26722828    -0.11100
C323        C  0.18526152  0.43223681  0.28773574    -0.12700
C324        C  0.10931181  0.19645370  0.30961547    -0.11100
C325        C  0.10154329  0.17445322  0.32634544    -0.12700
C326        C  0.09327260  0.32594826  0.13282730    -0.11100
C327        C  0.08944410  0.34662956  0.11347874    -0.12700
C328        C  0.10135754  0.34973673  0.28442191    -0.11100
C329        C  0.10227703  0.32207866  0.26821139    -0.12700
C330        C  0.17358199  0.17232692  0.09920301    -0.11100
C331        C  0.19103076  0.19661194  0.10733090    -0.12700
C332        C  0.18489939  0.08653877  0.15822430    -0.11100
C333        C  0.20920754  0.08690611  0.17852463    -0.12700
C334        C  0.10393620  0.17254370  0.16404388    -0.11100
C335        C  0.10545778  0.20050537  0.17932153    -0.12700
C336        C  0.10697892  0.09959291  0.58860576     0.88600
C337        C  0.13281821  0.07895563  0.60923088    -0.51600
C338        C  0.15281940  0.09859140  0.63354583     0.11500
C339        C  0.14473135  0.13545511  0.63478009     0.22500
C340        C  0.08685916  0.12146811  0.61712753    -0.49400
C341        C  0.10693605  0.14037263  0.64060236     0.11600
C342        C  0.13025010  0.12555733  0.57413917    -0.51900
C343        C  0.14953511  0.14394284  0.59879211     0.12200
H344        H  0.13532697  0.05195875  0.60436977     0.16700
H345        H  0.16029070  0.15136637  0.65415240     0.02500
H346        H  0.05954536  0.12498885  0.61614176     0.17000
H347        H  0.12972877  0.13040755  0.54763612     0.16800
C348        C  0.10022379  0.23166343  0.69826265     0.32100
C349        C  0.10187205  0.28815267  0.74221443     0.32100
C350        C  0.11897294  0.26075195  0.68440568    -0.04100
C351        C  0.06593886  0.24690874  0.70788412    -0.04800
C352        C  0.11632042  0.22808835  0.73312802    -0.04700
C353        C  0.12065028  0.29028497  0.70831056    -0.04100
C354        C  0.06689000  0.27653812  0.73044792    -0.04800
C355        C  0.11659090  0.25766993  0.75671999    -0.04700
C356        C  0.11715786  0.31694566  0.68975894    -0.30100
N357        N  0.11178218  0.30564126  0.65664407     0.16400
C358        C  0.11282115  0.27184727  0.65278652    -0.30100
H359        H  0.10419153  0.25626243  0.62998474     0.18300
C360        C  0.03963557  0.29520838  0.72316358    -0.29100
N361        N  0.52060059  0.24927578  0.73276804     0.15100
C362        C  0.03804196  0.24871954  0.68781149    -0.29100
C363        C  0.10902459  0.24771612  0.78844994    -0.29400
N364        N  0.10517414  0.21416985  0.78496600     0.15600
H365        H  0.10209153  0.26423577  0.81127349     0.18200
C366        C  0.10974393  0.20207139  0.75187926    -0.29400
H367        H  0.10338845  0.17671982  0.74120235     0.18200
H368        H  0.53416220  0.20599061  0.69722349     0.18200
H369        H  0.11241306  0.34257341  0.70073283     0.18300
H370        H  0.52889192  0.29558615  0.76613109     0.18200
C371        C  0.11118266  0.41997035  0.85123270     0.88600
C372        C  0.13800593  0.43947488  0.83066641    -0.51600
C373        C  0.15762131  0.41888213  0.80689380     0.11500
C374        C  0.14835851  0.38241805  0.80603684     0.22500
C375        C  0.09069413  0.39851366  0.82286290    -0.52300
C376        C  0.11053756  0.37877223  0.79988177     0.11600
C377        C  0.13336669  0.39365130  0.86643169    -0.51900
C378        C  0.15241377  0.37442012  0.84224714     0.12200
H379        H  0.14148759  0.46637676  0.83523519     0.16700
H380        H  0.16368114  0.36576933  0.78704999     0.02500
H381        H  0.06325931  0.39588669  0.82368239     0.17000
H382        H  0.13267059  0.38954050  0.89315212     0.16800
C383        C  0.23235879  0.09560117  0.70629653     0.32100
C384        C  0.27925670  0.10488069  0.75915040     0.32100
C385        C  0.21920199  0.09184209  0.74136100    -0.04100
C386        C  0.26293122  0.07126131  0.70352444    -0.04800
C387        C  0.24975409  0.13029504  0.71177887    -0.04700
C388        C  0.24274319  0.09614256  0.76836950    -0.04100
C389        C  0.28777798  0.07783891  0.73001965    -0.04800
C390        C  0.27523586  0.13476612  0.73849904    -0.04700
C391        C  0.23049172  0.07776772  0.79277447    -0.30100
N392        N  0.20078469  0.06343125  0.78167279     0.16400
C393        C  0.19452976  0.07080967  0.75000090    -0.30100
H394        H  0.17244225  0.06263394  0.73476464     0.18300
C395        C  0.30350056  0.04910704  0.73472573    -0.29100
N396        N  0.28652903  0.52503512  0.71921343     0.15100
C397        C  0.26215722  0.03686991  0.69744646    -0.29100
C398        C  0.30307023  0.14774848  0.72318097    -0.29400
N399        N  0.29610433  0.15009033  0.69003911     0.15600
H400        H  0.32872732  0.14505747  0.73234206     0.18200
C401        C  0.26317996  0.14320112  0.68417805    -0.29400
H402        H  0.25304621  0.13725514  0.65848365     0.18200
H403        H  0.23991984  0.52233550  0.69035122     0.18200
H404        H  0.24184857  0.07590311  0.81751604     0.18300
H405        H  0.32214544  0.54577325  0.75617938     0.18200
C406        C  0.39610238  0.12649798  0.56286360     0.88600
C407        C  0.37116340  0.14768961  0.54252737    -0.51600
C408        C  0.35149513  0.17072783  0.56336463     0.11500
C409        C  0.35865079  0.17039513  0.60103538     0.22500
C410        C  0.41648591  0.15313769  0.58683653    -0.52300
C411        C  0.39631783  0.17555949  0.60693533     0.11600
C412        C  0.37249889  0.11128485  0.58836987    -0.51900
C413        C  0.35340416  0.13479842  0.60799544     0.12200
H414        H  0.36893849  0.14414663  0.51482790     0.16700
H415        H  0.34289138  0.18883296  0.61774652     0.02500
H416        H  0.44372305  0.15159239  0.59068865     0.17000
H417        H  0.37288168  0.08512185  0.59237388     0.16800
C418        C  0.10448680  0.11521585  0.89642039     0.88600
C419        C  0.08205630  0.13730378  0.87566736    -0.51600
C420        C  0.09872706  0.14719557  0.84799580     0.11500
C421        C  0.13485916  0.13392141  0.84307125     0.22500
C422        C  0.11634216  0.08646557  0.87041606    -0.52300
C423        C  0.13212526  0.09609026  0.84341660     0.11600
C424        C  0.13696966  0.13762788  0.90499189    -0.51900
C425        C  0.15240307  0.14792539  0.87629643     0.12200
H426        H  0.05696515  0.14642467  0.88354175     0.16700
H427        H  0.14773023  0.14107621  0.81988662     0.02500
H428        H  0.11414792  0.06012397  0.87359251     0.17000
H429        H  0.14521535  0.14616328  0.93093600     0.16800
C430        C  0.40084671  0.27854222  0.75645692     0.32100
C431        C  0.40096208  0.23279300  0.70015853     0.32100
C432        C  0.39133993  0.29258997  0.72324424    -0.04100
C433        C  0.43424405  0.26103869  0.74772936    -0.04800
C434        C  0.37647764  0.24893083  0.75827379    -0.04700
C435        C  0.39073715  0.26830145  0.69403824    -0.04100
C436        C  0.43431170  0.23793384  0.71872414    -0.04800
C437        C  0.37757325  0.22381245  0.72910241    -0.04700
C438        C  0.40009903  0.28428436  0.66652427    -0.30100
N439        N  0.40678656  0.31659738  0.67741373     0.16400
C440        C  0.40222962  0.32204555  0.71174527    -0.30100
H441        H  0.40978042  0.34468376  0.72776540     0.18300
C442        C  0.96667225  0.25546063  0.67907639    -0.29100
N443        N  0.98573293  0.27900459  0.69784656     0.15100
C444        C  0.96756572  0.29221431  0.72559567    -0.29100
C445        C  0.37930520  0.19364332  0.74278696    -0.29400
N446        N  0.37807576  0.19946641  0.77731940     0.15600
H447        H  0.38808909  0.17028634  0.72888408     0.18200
C448        C  0.37489312  0.23243459  0.78676578    -0.29400
H449        H  0.37949529  0.24411407  0.81271134     0.18200
H450        H  0.97618841  0.31118557  0.74566461     0.18200
H451        H  0.40581998  0.27218798  0.64099516     0.18300
H452        H  0.97442053  0.24050035  0.65557202     0.18200
C453        C  0.41761225  0.42421018  0.57357793     0.88600
C454        C  0.39850945  0.40180710  0.54598759    -0.51600
C455        C  0.37853579  0.37914522  0.55818527     0.11500
C456        C  0.37878959  0.37948400  0.59702897     0.22500
C457        C  0.38838906  0.43907265  0.59950047    -0.52300
C458        C  0.36816557  0.41448133  0.61206206     0.11600
C459        C  0.43673209  0.40015904  0.59480964    -0.51900
C460        C  0.41589618  0.37728474  0.60728243     0.12200
H461        H  0.39972733  0.40442562  0.51884114     0.16700
H462        H  0.36259840  0.35964725  0.60595945     0.02500
H463        H  0.38509780  0.46562251  0.60762765     0.17000
H464        H  0.46344674  0.40276601  0.60147953     0.16800
C465        C  0.40141576  0.09294758  0.87837731     0.88600
C466        C  0.38144266  0.11045267  0.90859338    -0.51600
C467        C  0.35906920  0.13299439  0.89993176     0.11500
C468        C  0.35770649  0.13708427  0.86178057     0.22500
C469        C  0.37299384  0.07856034  0.85131219    -0.52300
C470        C  0.35015670  0.10286662  0.84219685     0.11600
C471        C  0.41734898  0.12123143  0.86048620    -0.51900
C472        C  0.39401750  0.14371030  0.85136311     0.12200
H473        H  0.38519527  0.10588256  0.93498676     0.16700
H474        H  0.33957804  0.15680249  0.85589091     0.02500
H475        H  0.37282208  0.05286869  0.83910119     0.17000
H476        H  0.44351944  0.12068995  0.85169154     0.16800
C477        C  0.24018514  0.41955938  0.73748186     0.32100
C478        C  0.29081370  0.41264941  0.68857988     0.32100
C479        C  0.22916094  0.42261692  0.70149713    -0.04100
C480        C  0.26903526  0.44546666  0.74246927    -0.04800
C481        C  0.25906442  0.38575644  0.73336710    -0.04700
C482        C  0.25474362  0.41943443  0.67618631    -0.04100
C483        C  0.29600545  0.44042893  0.71793989    -0.04800
C484        C  0.28647022  0.38255027  0.70879195    -0.04700
C485        C  0.24435651  0.43908936  0.65197388    -0.30100
N486        N  0.21424261  0.45333249  0.66168927     0.16400
C487        C  0.20556639  0.44432715  0.69208852    -0.30100
H488        H  0.18270432  0.45233043  0.70616700     0.18300
C489        C  0.30595441  0.96919997  0.71110699    -0.29100
N490        N  0.28666705  0.99327980  0.72668559     0.15100
C491        C  0.26218532  0.98095400  0.74548725    -0.29100
C492        C  0.31333141  0.36986076  0.72581227    -0.29400
N493        N  0.30375401  0.36611908  0.75798021     0.15600
H494        H  0.33966109  0.37282585  0.71870389     0.18200
C495        C  0.27047412  0.37255926  0.76155241    -0.29400
H496        H  0.25832766  0.37761822  0.78642891     0.18200
H497        H  0.24035647  0.99517783  0.75582511     0.18200
H498        H  0.25768681  0.44249981  0.62860728     0.18300
H499        H  0.32322019  0.97289331  0.69050123     0.18200
C500        C  0.11205482  0.40908710  0.55015324     0.88600
C501        C  0.12584586  0.43677318  0.57627042    -0.51600
C502        C  0.14183929  0.42598817  0.60247159     0.11500
C503        C  0.14224510  0.38804650  0.60253707     0.22500
C504        C  0.14332064  0.38480174  0.54070066    -0.52300
C505        C  0.15861068  0.37327280  0.56901383     0.11600
C506        C  0.08886630  0.38789573  0.57104409    -0.51900
C507        C  0.10540676  0.37663066  0.59814464     0.12200
H508        H  0.12539254  0.46327529  0.57360948     0.16700
H509        H  0.15488826  0.38007464  0.62547364     0.02500
H510        H  0.15126681  0.37582655  0.01509822     0.17000
H511        H  0.06347729  0.37976113  0.56309445     0.16800
C512        C  0.39474578  0.38788283  0.89098409     0.88600
C513        C  0.36864011  0.36845152  0.91175400    -0.51600
C514        C  0.34864430  0.34549150  0.89124974     0.11500
C515        C  0.35639835  0.34445263  0.85349151     0.22500
C516        C  0.41446952  0.35963833  0.86829437    -0.52300
C517        C  0.39391847  0.33753125  0.84851241     0.11600
C518        C  0.37259635  0.40310311  0.86454599    -0.51900
C519        C  0.35299553  0.37992642  0.84526137     0.12200
H520        H  0.36631383  0.37262776  0.93943973     0.16700
H521        H  0.34021449  0.32625375  0.83700524     0.02500
H522        H  0.44178092  0.35979641  0.86462027     0.17000
H523        H  0.37481727  0.42882631  0.85928955     0.16800
C524        C  0.27387682  0.24183318  0.56339325     0.32100
C525        C  0.22717815  0.29272842  0.57411757     0.32100
C526        C  0.28720140  0.27647466  0.56111713    -0.04100
C527        C  0.24362667  0.23946707  0.53849995    -0.04800
C528        C  0.25591596  0.24535982  0.59866529    -0.04700
C529        C  0.26356996  0.30246308  0.56631733    -0.04100
C530        C  0.21907093  0.26528266  0.54531597    -0.04800
C531        C  0.23041083  0.27139740  0.60394200    -0.04700
C532        C  0.27632551  0.32815375  0.55034053    -0.30100
N533        N  0.30648030  0.31837304  0.53608352     0.16400
C534        C  0.31310285  0.28687108  0.54195577    -0.30100
H535        H  0.33545177  0.27262098  0.53311891     0.18300
C536        C  0.19922674  0.27163378  0.01660177    -0.29100
N537        N  0.21385167  0.25364529  0.99009388     0.15100
C538        C  0.23959438  0.23512071  0.00057092    -0.29100
C539        C  0.20217458  0.25579483  0.61588655    -0.29400
N540        N  0.20885188  0.22306033  0.61665314     0.15600
H541        H  0.17657293  0.26516916  0.61365741     0.18200
C542        C  0.24189575  0.21751893  0.60987496    -0.29400
H543        H  0.25199659  0.19255103  0.60269855     0.18200
H544        H  0.25930138  0.22372812  0.98379365     0.18200
H545        H  0.26459373  0.35230392  0.54922363     0.18300
H546        H  0.18294541  0.29287086  0.01417735     0.18200
C547        C  0.27131350  0.27493415  0.88979316     0.32100
C548        C  0.22404871  0.22561246  0.87509221     0.32100
C549        C  0.28340529  0.23987596  0.89322824    -0.04100
C550        C  0.23918091  0.27815808  0.91232687    -0.04800
C551        C  0.25644744  0.27189551  0.85321030    -0.04700
C552        C  0.25907849  0.21461701  0.88592747    -0.04100
C553        C  0.21432612  0.25289394  0.90354458    -0.04800
C554        C  0.23071749  0.24662572  0.84573039    -0.04700
C555        C  0.26725065  0.18995812  0.90555083    -0.30100
N556        N  0.29556488  0.19885785  0.92363340     0.16400
C557        C  0.30524152  0.22941213  0.91692678    -0.30100
H558        H  0.32689559  0.24311595  0.92841435     0.18300
C559        C  0.19772960  0.24712032  0.93233971    -0.29100
N560        N  0.21314610  0.26492916  0.95847292     0.15100
C561        C  0.23794468  0.28402315  0.94735643    -0.29100
C562        C  0.20441782  0.26261925  0.83090666    -0.29400
N563        N  0.21244077  0.29505840  0.83026167     0.15600
H564        H  0.17836439  0.25386821  0.83056357     0.18200
C565        C  0.24473060  0.29993947  0.84048694    -0.29400
H566        H  0.25497436  0.32471136  0.84839091     0.18200
H567        H  0.25806096  0.29543802  0.96358408     0.18200
H568        H  0.25358741  0.16674518  0.90634252     0.18300
H569        H  0.18203281  0.22556237  0.93511387     0.18200
C570        C  0.09471718  0.42620099  0.52179610     0.44600
N571        N  0.05073953  0.44947330  0.50064292     0.03500
C572        C  0.05128755  0.10344087  0.93498848    -0.04400
H573        H  0.03697706  0.11626029  0.55330235     0.09000
C574        C  0.41200440  0.06381453  0.52944919    -0.04700
Co575      Co  0.06908958  0.01337972  0.97454528     0.74200
N576        N  0.04253197  0.07182603  0.51630513    -0.23900
Co577      Co  0.00313614  0.07185964  0.98221242     0.74100
C578        C  0.41925827  0.09933237  0.54197726     0.44700
N579        N  0.44901072  0.47254514  0.50914143     0.03100
N580        N  0.46366835  0.07472152  0.51577042     0.03200
N581        N  0.09581969  0.06884157  0.93387324    -0.44800
H582        H  0.12703854  0.47284603  0.51507109     0.09000
N583        N  0.06690873  0.04857886  0.51332729     0.03500
N584        N  0.46291898  0.06413772  0.93667298     0.03200
C585        C  0.42838081  0.07049473  0.89321069     0.44800
N586        N  0.47418435  0.45027912  0.50596714    -0.23400
C587        C  0.09471406  0.47199025  0.90003466    -0.04300
N588        N  0.06163918  0.42203640  0.51294597    -0.44500
N589        N  0.45543829  0.08375350  0.91269519    -0.44700
C590        C  0.08729494  0.44007547  0.87897670     0.44600
N591        N  0.06886015  0.05536393  0.94716461     0.03500
N592        N  0.46592447  0.44175987  0.93249305    -0.23400
N593        N  0.07407289  0.47300494  0.50156457    -0.23900
N594        N  0.43918534  0.46161047  0.93768562     0.03100
H595        H  0.47112626  0.38986211  0.91221560     0.09000
H596        H  0.39735325  0.02462351  0.90383614     0.09000
N597        N  0.04260802  0.07561516  0.94856680    -0.23900
N598        N  0.44050272  0.05078613  0.51331546    -0.23600
N599        N  0.04966260  0.45011832  0.92130672     0.03500
C600        C  0.08240416  0.08078163  0.56028398     0.44900
C601        C  0.47133735  0.43290634  0.53323198    -0.04800
N602        N  0.44147884  0.03847201  0.93490978    -0.23600
H603        H  0.38765380  0.05133051  0.52877942     0.09000
N604        N  0.09067946  0.05347632  0.53785023    -0.44800
H605        H  0.48708841  0.41175283  0.53725242     0.09000
C606        C  0.41884041  0.41456610  0.91080630     0.44700
C607        C  0.10260901  0.46045757  0.51383272    -0.04300
Co608      Co  0.50799931  0.44691555  0.96536443     0.73800
N609        N  0.42935468  0.47058750  0.53646246    -0.44500
C610        C  0.08709188  0.09958039  0.92540876     0.45000
N611        N  0.05931074  0.42786116  0.89462062    -0.44500
Co612      Co  0.44227311  0.00480465  0.97197658     0.73900
C613        C  0.41939918  0.04047061  0.90900475    -0.04800
C614        C  0.05059446  0.09337662  0.54486066    -0.04400
N615        N  0.07078084  0.47618763  0.92494554    -0.23900
N616        N  0.45205616  0.10354059  0.53245606    -0.44700
H617        H  0.03558639  0.12553456  0.93558541     0.09000
C618        C  0.45576306  0.41229506  0.91529013    -0.04800
Cl619      Cl  0.00560860  0.01022526  0.97486109    -0.47800
C620        C  0.44152203  0.44649353  0.55445832     0.44700
H621        H  0.11667256  0.48789668  0.89869105     0.09000
N622        N  0.41074441  0.44626440  0.92514952    -0.44500
C623        C  0.29820511  0.30198920  0.89796258    -0.11100
C624        C  0.32110595  0.32309767  0.90049133    -0.12700
C625        C  0.18340455  0.34539126  0.56994379    -0.11100
C626        C  0.20245584  0.32203582  0.57491015    -0.12700
C627        C  0.32454097  0.37546158  0.78616393    -0.11100
C628        C  0.33851423  0.38358188  0.81291293    -0.12700
C629        C  0.16464616  0.44765805  0.62188517    -0.11100
C630        C  0.18850438  0.45663267  0.63884867    -0.12700
C631        C  0.33918148  0.15347364  0.92434049    -0.11100
C632        C  0.31872931  0.17502232  0.93103478    -0.12700
C633        C  0.35546717  0.35899036  0.53718674    -0.11100
C634        C  0.33224103  0.34043423  0.53106473    -0.12700
C635        C  0.34082160  0.41709484  0.63911276    -0.11100
C636        C  0.31862388  0.41297102  0.66084116    -0.12700
C637        C  0.40312783  0.30215326  0.78838275    -0.11100
C638        C  0.40372627  0.31818794  0.81654596    -0.12700
C639        C  0.39032035  0.17827182  0.80011812    -0.11100
C640        C  0.39802672  0.16251843  0.82298556    -0.12700
C641        C  0.42395533  0.35736453  0.63418455    -0.11100
C642        C  0.41870891  0.33932427  0.65590159    -0.12700
C643        C  0.19858763  0.19708272  0.87156670    -0.11100
C644        C  0.17847255  0.17437856  0.87528541    -0.12700
C645        C  0.30075486  0.21438624  0.55679141    -0.11100
C646        C  0.32389189  0.19342773  0.55454669    -0.12700
C647        C  0.40384033  0.20939789  0.66804943    -0.11100
C648        C  0.40566358  0.19375843  0.63969126    -0.12700
C649        C  0.30483793  0.10538502  0.78922099    -0.11100
C650        C  0.32525924  0.10141448  0.81273113    -0.12700
C651        C  0.17377537  0.06208608  0.80356234    -0.11100
C652        C  0.15116911  0.07270760  0.82155223    -0.12700
C653        C  0.31908616  0.13961841  0.66385112    -0.11100
C654        C  0.33556684  0.13080846  0.63868081    -0.12700
C655        C  0.17134380  0.34496997  0.84633215    -0.11100
C656        C  0.18901087  0.32085538  0.83871969    -0.12700
C657        C  0.21125112  0.42438985  0.76419885    -0.11100
C658        C  0.18695565  0.42658578  0.78467503    -0.12700
C659        C  0.09386710  0.19466280  0.80985577    -0.11100
C660        C  0.08909704  0.17414864  0.82918828    -0.12700
C661        C  0.10052399  0.32642280  0.63281012    -0.11100
C662        C  0.09565200  0.34835993  0.61508172    -0.12700
C663        C  0.09987629  0.34772701  0.78080765    -0.11100
C664        C  0.10043834  0.31998596  0.76515172    -0.12700
C665        C  0.16830997  0.17380449  0.59578170    -0.11100
C666        C  0.18555150  0.19784800  0.60526894    -0.12700
C667        C  0.18131364  0.08948590  0.65641984    -0.11100
C668        C  0.20492396  0.09050886  0.67779084    -0.12700
C669        C  0.09683500  0.17172105  0.65991495    -0.11100
C670        C  0.09750968  0.19949967  0.67570951    -0.12700
C671        C  0.10666317  0.59568873  0.08930893     0.88600
C672        C  0.13165081  0.57323008  0.10840157    -0.51600
C673        C  0.15387132  0.59121178  0.13141772     0.11500
C674        C  0.14873487  0.62868230  0.13307999     0.22500
C675        C  0.08922026  0.61894826  0.11878363    -0.49400
C676        C  0.11167307  0.63641114  0.14112002     0.11600
C677        C  0.13071320  0.61991982  0.07343564    -0.51900
C678        C  0.15221782  0.63699063  0.09681312     0.12200
H679        H  0.13191632  0.54611234  0.10360076     0.16700
H680        H  0.16637252  0.64329137  0.15144023     0.02500
H681        H  0.06218309  0.62432370  0.11919911     0.17000
H682        H  0.12860600  0.62533295  0.04718737     0.16800
C683        C  0.10796606  0.72923908  0.19824585     0.32100
C684        C  0.10574600  0.78778294  0.23981100     0.32100
C685        C  0.12355375  0.75900443  0.18265438    -0.04100
C686        C  0.07307562  0.74212965  0.20823802    -0.04800
C687        C  0.12519272  0.72868988  0.23338078    -0.04700
C688        C  0.12332001  0.78952651  0.20526662    -0.04100
C689        C  0.07189453  0.77230375  0.22930089    -0.04800
C690        C  0.12344202  0.75940528  0.25565591    -0.04700
C691        C  0.11746821  0.81478927  0.18546387    -0.30100
N692        N  0.11247918  0.80168778  0.15278995     0.16400
C693        C  0.11594348  0.76809012  0.15045060    -0.30100
H694        H  0.10843106  0.75100509  0.12824839     0.18300
C695        C  0.03918962  0.77822498  0.23868621    -0.29100
N696        N  0.52022953  0.74479219  0.23571332     0.15100
C697        C  0.04110294  0.72973991  0.20485124    -0.29100
C698        C  0.11601147  0.75067891  0.28795905    -0.29400
N699        N  0.11367283  0.71711638  0.28621896     0.15600
H700        H  0.10707347  0.76781234  0.30954799     0.18200
C701        C  0.11981581  0.70363432  0.25376793    -0.29400
H702        H  0.11433709  0.67777665  0.24423171     0.18200
H703        H  0.53368540  0.70160328  0.20017301     0.18200
H704        H  0.11122650  0.84040981  0.19530624     0.18300
H705        H  0.52821724  0.79232278  0.26696090     0.18200
C706        C  0.11019575  0.92123548  0.34891069     0.88600
C707        C  0.13622378  0.94123145  0.32767973    -0.51600
C708        C  0.15670703  0.92099832  0.30423693     0.11500
C709        C  0.14876677  0.88427302  0.30418828     0.22500
C710        C  0.09049522  0.89834155  0.32087960    -0.52300
C711        C  0.11102168  0.87900604  0.29808620     0.11600
C712        C  0.13376573  0.89629461  0.36456966    -0.51900
C713        C  0.15357109  0.87743385  0.34071780     0.12200
H714        H  0.13885050  0.96823804  0.33192158     0.16700
H715        H  0.16466902  0.86782527  0.28557862     0.02500
H716        H  0.06314097  0.89499911  0.32148506     0.17000
H717        H  0.13387308  0.89311840  0.39154455     0.16800
C718        C  0.23321416  0.58439285  0.20128547     0.32100
C719        C  0.27946209  0.59685877  0.25403254     0.32100
C720        C  0.22198709  0.57611584  0.23545664    -0.04100
C721        C  0.26698650  0.56440491  0.19674155    -0.04800
C722        C  0.24533172  0.62107574  0.20901802    -0.04700
C723        C  0.24501298  0.58207598  0.26216361    -0.04100
C724        C  0.29166477  0.57324994  0.22317539    -0.04800
C725        C  0.27057002  0.62752279  0.23572588    -0.04700
C726        C  0.22993326  0.57114302  0.28998672    -0.30100
N727        N  0.19880542  0.55899883  0.28033718     0.16400
C728        C  0.19395012  0.56142117  0.24691686    -0.30100
H729        H  0.17041144  0.55610569  0.23302134     0.18300
C730        C  0.31112373  0.54645723  0.22689350    -0.29100
N731        N  0.29410836  0.02197083  0.20973612     0.15100
C732        C  0.26987110  0.53006419  0.19096227    -0.29100
C733        C  0.29582353  0.64509917  0.22105751    -0.29400
N734        N  0.28787298  0.64789107  0.18816341     0.15600
H735        H  0.32185499  0.64548990  0.22998150     0.18200
C736        C  0.25593505  0.63727284  0.18231406    -0.29400
H737        H  0.24595948  0.63124362  0.15655746     0.18200
H738        H  0.24677364  0.01993282  0.18248915     0.18200
H739        H  0.23939312  0.57480565  0.31602690     0.18300
H740        H  0.33000462  0.04214998  0.24660866     0.18200
C741        C  0.39547403  0.62421378  0.06541732     0.88600
C742        C  0.37302765  0.64651628  0.04415030    -0.51600
C743        C  0.35390003  0.67043916  0.06419315     0.11500
C744        C  0.35927834  0.67021953  0.10218566     0.22500
C745        C  0.41642342  0.64962839  0.09027992    -0.52300
C746        C  0.39688724  0.67316904  0.10967101     0.11600
C747        C  0.36957726  0.61038448  0.08990032    -0.51900
C748        C  0.35112690  0.63509771  0.10883149     0.12200
H749        H  0.37129764  0.64254571  0.01641373     0.16700
H750        H  0.34395807  0.68962897  0.11814485     0.02500
H751        H  0.44332989  0.64655006  0.09509447     0.17000
H752        H  0.36749594  0.58415394  0.09330919     0.16800
C753        C  0.10532743  0.61846239  0.39697732     0.88600
C754        C  0.08346327  0.64119367  0.37625001    -0.51600
C755        C  0.10054996  0.65104210  0.34867824     0.11500
C756        C  0.13633276  0.63713846  0.34375984     0.22500
C757        C  0.11701702  0.58982753  0.37076002    -0.52300
C758        C  0.13298391  0.59947623  0.34388529     0.11600
C759        C  0.13825579  0.64060726  0.40565127    -0.51900
C760        C  0.15392276  0.65094373  0.37689356     0.12200
H761        H  0.05868492  0.65100222  0.38436517     0.16700
H762        H  0.14941072  0.64406903  0.32057708     0.02500
H763        H  0.11416699  0.56344095  0.37347798     0.17000
H764        H  0.14636797  0.64920051  0.43162310     0.16800
C765        C  0.40335893  0.77886011  0.25746386     0.32100
C766        C  0.40209696  0.73124436  0.20261933     0.32100
C767        C  0.39730878  0.79210984  0.22307396    -0.04100
C768        C  0.43513492  0.75793866  0.25123660    -0.04800
C769        C  0.37604104  0.75168497  0.25929878    -0.04700
C770        C  0.39612431  0.76706148  0.19481152    -0.04100
C771        C  0.43458922  0.73388667  0.22301317    -0.04800
C772        C  0.37604138  0.72568365  0.23077624    -0.04700
C773        C  0.40690272  0.78135932  0.16668188    -0.30100
N774        N  0.41454576  0.81370843  0.17641234     0.16400
C775        C  0.40964571  0.82059158  0.21065941    -0.30100
H776        H  0.41697953  0.84374693  0.22589987     0.18300
C777        C  0.96626133  0.73042136  0.20301130    -0.29100
N778        N  0.98594420  0.74898210  0.22629494     0.15100
C779        C  0.96660411  0.76858925  0.24893222    -0.29100
C780        C  0.37382260  0.69606530  0.24543554    -0.29400
N781        N  0.37197038  0.70288956  0.27990649     0.15600
H782        H  0.38085639  0.67172514  0.23241012     0.18200
C783        C  0.37177106  0.73620989  0.28832940    -0.29400
H784        H  0.37672423  0.74814032  0.31411105     0.18200
H785        H  0.97560261  0.78682422  0.26949055     0.18200
H786        H  0.41182445  0.76827285  0.14138566     0.18300
H787        H  0.97507288  0.71394759  0.18091683     0.18200
C788        C  0.41778553  0.92091514  0.07216525     0.88600
C789        C  0.39801226  0.89900871  0.04472817    -0.51600
C790        C  0.37893034  0.87560081  0.05688157     0.11500
C791        C  0.38082995  0.87469259  0.09555973     0.22500
C792        C  0.38928600  0.93459313  0.09952250    -0.52300
C793        C  0.37006608  0.90921867  0.11204843     0.11600
C794        C  0.43814406  0.89649420  0.09181413    -0.51900
C795        C  0.41842388  0.87284071  0.10429751     0.12200
H796        H  0.39798624  0.90262062  0.01780049     0.16700
H797        H  0.36547352  0.85423505  0.10441641     0.02500
H798        H  0.38573786  0.96094192  0.10851759     0.17000
H799        H  0.46496161  0.89959950  0.09785657     0.16800
C800        C  0.39865090  0.59055056  0.37659082     0.88600
C801        C  0.37671759  0.60530373  0.40660764    -0.51600
C802        C  0.35244222  0.62603906  0.39812076     0.11500
C803        C  0.35114567  0.63122659  0.36024255     0.22500
C804        C  0.37213622  0.57454246  0.34830264    -0.52300
C805        C  0.34736573  0.59709518  0.33933460     0.11600
C806        C  0.41205753  0.62104767  0.36011629    -0.51900
C807        C  0.38669353  0.64174054  0.35117406     0.12200
H808        H  0.38118384  0.60106235  0.43299145     0.16700
H809        H  0.33126866  0.64938453  0.35446751     0.02500
H810        H  0.37473438  0.54938077  0.33502758     0.17000
H811        H  0.43837373  0.62364121  0.35263681     0.16800
C812        C  0.24162524  0.92058642  0.23720639     0.32100
C813        C  0.29365277  0.90847528  0.18985145     0.32100
C814        C  0.23180852  0.92001084  0.20032674    -0.04100
C815        C  0.27091551  0.94634600  0.24016831    -0.04800
C816        C  0.26022152  0.88682853  0.23689532    -0.04700
C817        C  0.25804553  0.91420626  0.17595626    -0.04100
C818        C  0.29860423  0.93833416  0.21695111    -0.04800
C819        C  0.28819472  0.88086065  0.21304905    -0.04700
C820        C  0.24814451  0.92965513  0.14844433    -0.30100
N821        N  0.21766876  0.94422005  0.15559042     0.16400
C822        C  0.20817728  0.93939359  0.18726561    -0.30100
H823        H  0.18482878  0.94858556  0.19968786     0.18300
C824        C  0.31246009  0.46484105  0.20995105    -0.29100
N825        N  0.29540589  0.49085130  0.22474101     0.15100
C826        C  0.27004438  0.48113546  0.24456677    -0.29100
C827        C  0.31428309  0.86951840  0.23205892    -0.29400
N828        N  0.30376801  0.86911743  0.26457575     0.15600
H829        H  0.34086041  0.87112813  0.22522285     0.18200
C830        C  0.27065201  0.87650298  0.26690190    -0.29400
H831        H  0.25811246  0.88407397  0.29121577     0.18200
H832        H  0.24926337  0.49725337  0.25422525     0.18200
H833        H  0.26197679  0.93000822  0.12471283     0.18300
H834        H  0.32956496  0.46641080  0.18866713     0.18200
C835        C  0.11051443  0.90381464  0.04518004     0.88600
C836        C  0.12701242  0.92977439  0.07142633    -0.51600
C837        C  0.14405128  0.91691043  0.09576471     0.11500
C838        C  0.14258773  0.87898763  0.09419867     0.22500
C839        C  0.14007591  0.87849867  0.03266698    -0.52300
C840        C  0.15633795  0.86515755  0.05934402     0.11600
C841        C  0.08757351  0.88273089  0.06644552    -0.51900
C842        C  0.10515582  0.86948766  0.09173123     0.12200
H843        H  0.12768694  0.95651424  0.07005082     0.16700
H844        H  0.15618412  0.86934171  0.11574574     0.02500
H845        H  0.14669331  0.87405509  0.51236064     0.17000
H846        H  0.06129679  0.87649298  0.06018511     0.16800
C847        C  0.39907529  0.88874667  0.39301808     0.88600
C848        C  0.37454791  0.86702109  0.41316205    -0.51600
C849        C  0.35448128  0.84465596  0.39200825     0.11500
C850        C  0.36072912  0.84640229  0.35438828     0.22500
C851        C  0.41888535  0.86244232  0.36794781    -0.52300
C852        C  0.39822890  0.84080124  0.34773170     0.11600
C853        C  0.37537275  0.90518381  0.36892796    -0.51900
C854        C  0.35576876  0.88259328  0.34912808     0.12200
H855        H  0.37313063  0.86947046  0.44089887     0.16700
H856        H  0.34446801  0.82878708  0.33732014     0.02500
H857        H  0.44614010  0.86315347  0.36395614     0.17000
H858        H  0.37625358  0.93152811  0.36562988     0.16800
C859        C  0.27462898  0.73803301  0.05975697     0.32100
C860        C  0.22552219  0.78634947  0.06533108     0.32100
C861        C  0.28650689  0.77283422  0.05619848    -0.04100
C862        C  0.24601191  0.73276678  0.03332464    -0.04800
C863        C  0.25491026  0.74218532  0.09406156    -0.04700
C864        C  0.26168251  0.79755050  0.05876551    -0.04100
C865        C  0.21985376  0.75721186  0.03755392    -0.04800
C866        C  0.22822895  0.76705576  0.09667567    -0.04700
C867        C  0.27466411  0.82358139  0.04342644    -0.30100
N868        N  0.30623362  0.81499316  0.03201163     0.16400
C869        C  0.31345340  0.78397319  0.03906972    -0.30100
H870        H  0.33701976  0.77072699  0.03273599     0.18300
C871        C  0.19963087  0.77076546  0.51428200    -0.29100
N872        N  0.21616652  0.75313591  0.48881694     0.15100
C873        C  0.24090648  0.73454764  0.50082337    -0.29100
C874        C  0.20008943  0.75105361  0.10825637    -0.29400
N875        N  0.20795182  0.71900559  0.11132842     0.15600
H876        H  0.17427839  0.75910819  0.10431706     0.18200
C877        C  0.24138806  0.71448547  0.10604385    -0.29400
H878        H  0.25264162  0.68979577  0.10064003     0.18200
H879        H  0.26168634  0.72338561  0.48535513     0.18200
H880        H  0.26225661  0.84715300  0.04100486     0.18300
H881        H  0.18365248  0.79196345  0.51080526     0.18200
C882        C  0.27647737  0.77438267  0.38881410     0.32100
C883        C  0.22633414  0.72799887  0.37315557     0.32100
C884        C  0.28687221  0.73831323  0.39024048    -0.04100
C885        C  0.24506697  0.77814404  0.41220536    -0.04800
C886        C  0.26049068  0.77405120  0.35287018    -0.04700
C887        C  0.26089169  0.71466740  0.38243680    -0.04100
C888        C  0.21864546  0.75477790  0.40270905    -0.04800
C889        C  0.23359927  0.75003908  0.34471684    -0.04700
C890        C  0.26689939  0.68926442  0.40174269    -0.30100
N891        N  0.29510822  0.69609530  0.42045769     0.16400
C892        C  0.30742100  0.72585662  0.41399771    -0.30100
H893        H  0.32960588  0.73798163  0.42619389     0.18300
C894        C  0.20118006  0.74933836  0.43099710    -0.29100
N895        N  0.21783782  0.76489068  0.45753243     0.15100
C896        C  0.24432316  0.78244145  0.44727983    -0.29100
C897        C  0.20787549  0.76779373  0.33107618    -0.29400
N898        N  0.21707665  0.80011060  0.33181222     0.15600
H899        H  0.18154305  0.75989428  0.33028249     0.18200
C900        C  0.24946196  0.80349493  0.34226435    -0.29400
H901        H  0.26057918  0.82765537  0.35121279     0.18200
H902        H  0.26503971  0.79191756  0.46384859     0.18200
H903        H  0.25140657  0.66714059  0.40236793     0.18300
H904        H  0.18341619  0.72918168  0.43301860     0.18200
C905        C  0.09264831  0.92293999  0.01886238     0.44600
N906        N  0.04886943  0.94785551  0.99967874     0.03500
C907        C  0.05096740  0.60546999  0.43475601    -0.04400
H908        H  0.03623298  0.61395452  0.05533848     0.09000
C909        C  0.40971499  0.56138345  0.03093676    -0.04700
Co910      Co  0.06941835  0.51496857  0.47414553     0.74200
N911        N  0.04214846  0.57029302  0.01734072    -0.23900
Co912      Co  0.00217690  0.57296750  0.48194221     0.74100
C913        C  0.41797945  0.59637311  0.04494395     0.44700
N914        N  0.44874528  0.97134067  0.00884042     0.03100
N915        N  0.46080062  0.57236155  0.01572110     0.03200
N916        N  0.09560414  0.57116539  0.43375488    -0.44800
H917        H  0.12577159  0.96926983  0.01325626     0.09000
N918        N  0.06641230  0.54696997  0.01428254     0.03500
N919        N  0.46157847  0.56437463  0.43564339     0.03200
C920        C  0.42692562  0.56945260  0.39171253     0.44800
N921        N  0.47395316  0.94910193  0.00518420    -0.23400
C922        C  0.09328814  0.97293938  0.39834527    -0.04300
N923        N  0.05941070  0.91965266  0.01062880    -0.44500
N924        N  0.45349490  0.58364651  0.41144080    -0.44700
C925        C  0.08573885  0.94124096  0.37681075     0.44600
N926        N  0.06855381  0.55723496  0.44657883     0.03500
N927        N  0.46934294  0.94272022  0.43488120    -0.23400
N928        N  0.07258938  0.97108515  0.00129445    -0.23900
N929        N  0.44265146  0.96259888  0.43960100     0.03100
H930        H  0.47492768  0.89067751  0.41525214     0.09000
H931        H  0.39738106  0.52274654  0.40257692     0.09000
N932        N  0.04209880  0.57735609  0.44801456    -0.23900
N933        N  0.43747429  0.54863814  0.01316489    -0.23600
N934        N  0.04847429  0.95096684  0.42001687     0.03500
C935        C  0.08106055  0.57769649  0.06212291     0.44900
C936        C  0.47099972  0.93088932  0.03175165    -0.04800
N937        N  0.44081622  0.53822610  0.43401112    -0.23600
H938        H  0.38524398  0.54917702  0.03075054     0.09000
N939        N  0.08953920  0.55094342  0.03928003    -0.44800
H940        H  0.48669665  0.90951143  0.03510909     0.09000
C941        C  0.42263528  0.91512371  0.41359735     0.44700
C942        C  0.10102175  0.95753597  0.01250334    -0.04300
Co943      Co  0.51090684  0.94819358  0.46768545     0.73800
N944        N  0.42882396  0.96845374  0.03580412    -0.44500
C945        C  0.08707282  0.60209713  0.42550686     0.45000
N946        N  0.05790463  0.92893807  0.39289667    -0.44500
Co947      Co  0.44217797  0.50521178  0.47170367     0.73900
C948        C  0.41894383  0.53924946  0.40773622    -0.04800
C949        C  0.04980079  0.59113680  0.04651603    -0.04400
N950        N  0.06966037  0.97697309  0.42362956    -0.23900
N951        N  0.45013722  0.60075844  0.03386956    -0.44700
H952        H  0.03521837  0.62753826  0.43543097     0.09000
C953        C  0.45945262  0.91304208  0.41806955    -0.04800
Cl954      Cl  0.00600080  0.51104300  0.47493167    -0.47800
C955        C  0.44110784  0.94386939  0.05313318     0.44700
H956        H  0.11514403  0.98894394  0.39684736     0.09000
N957        N  0.41435504  0.94703615  0.42712244    -0.44500
C958        C  0.30458029  0.80015013  0.39747882    -0.11100
C959        C  0.32764248  0.82111923  0.40050969    -0.12700
C960        C  0.18072391  0.83708246  0.05815562    -0.11100
C961        C  0.19988985  0.81419845  0.06366295    -0.12700
C962        C  0.32425503  0.87982905  0.29251516    -0.11100
C963        C  0.33902420  0.88817803  0.31864858    -0.12700
C964        C  0.16904017  0.93641475  0.11432004    -0.11100
C965        C  0.19282312  0.94529045  0.13136936    -0.12700
C966        C  0.33334390  0.64680317  0.42295988    -0.11100
C967        C  0.31533833  0.67046263  0.42916557    -0.12700
C968        C  0.35503690  0.85616729  0.03615911    -0.11100
C969        C  0.33177843  0.83786580  0.02895868    -0.12700
C970        C  0.34357619  0.91077713  0.13997237    -0.11100
C971        C  0.32179962  0.90675384  0.16218885    -0.12700
C972        C  0.40644613  0.80374043  0.28837622    -0.11100
C973        C  0.40761034  0.82096497  0.31589038    -0.12700
C974        C  0.38207389  0.68118984  0.30330937    -0.11100
C975        C  0.38923929  0.66388713  0.32520612    -0.12700
C976        C  0.42816836  0.85332346  0.13102945    -0.11100
C977        C  0.42487942  0.83581392  0.15354756    -0.12700
C978        C  0.19957162  0.70042200  0.37011046    -0.11100
C979        C  0.17963496  0.67783619  0.37520134    -0.12700
C980        C  0.30267422  0.71209158  0.05535459    -0.11100
C981        C  0.32650028  0.69223542  0.05413518    -0.12700
C982        C  0.40439438  0.70692442  0.17104421    -0.11100
C983        C  0.40600766  0.69092297  0.14280028    -0.12700
C984        C  0.30436603  0.59859586  0.28457657    -0.11100
C985        C  0.32408509  0.59493021  0.30866603    -0.12700
C986        C  0.17169339  0.56295577  0.30247164    -0.11100
C987        C  0.15047897  0.57589445  0.32088531    -0.12700
C988        C  0.31143463  0.64004521  0.16174333    -0.11100
C989        C  0.32959373  0.63215402  0.13749417    -0.12700
C990        C  0.17524467  0.84999972  0.34585035    -0.11100
C991        C  0.19410574  0.82653228  0.33948074    -0.12700
C992        C  0.21165290  0.92714747  0.26287582    -0.11100
C993        C  0.18653623  0.92921119  0.28253149    -0.12700
C994        C  0.09987530  0.69889764  0.31113521    -0.11100
C995        C  0.09258218  0.67890765  0.33041787    -0.12700
C996        C  0.10024281  0.82071332  0.12785354    -0.11100
C997        C  0.09489238  0.84187148  0.10934020    -0.12700
C998        C  0.10123384  0.84805539  0.27775117    -0.11100
C999        C  0.10234286  0.82044365  0.26154470    -0.12700
C1000       C  0.16978033  0.66732431  0.09298904    -0.11100
C1001       C  0.18586201  0.69240713  0.10120521    -0.12700
C1002       C  0.18184062  0.57935804  0.15281245    -0.11100
C1003       C  0.20575777  0.57857439  0.17333077    -0.12700
C1004       C  0.10468428  0.66840448  0.16113324    -0.11100
C1005       C  0.10650866  0.69630533  0.17670205    -0.12700
C1006       C  0.10662915  0.60090988  0.59415655     0.88600
C1007       C  0.13166300  0.58009230  0.61530005    -0.51600
C1008       C  0.15261164  0.59966367  0.63861728     0.11500
C1009       C  0.14621705  0.63666017  0.63853512     0.22500
C1010       C  0.08762341  0.62453069  0.62216829    -0.49400
C1011       C  0.10875377  0.64331209  0.64472229     0.11600
C1012       C  0.13073416  0.62519876  0.57828314    -0.51900
C1013       C  0.15093782  0.64361596  0.60202154     0.12200
H1014       H  0.13298623  0.55298295  0.61148003     0.16700
H1015       H  0.16265392  0.65251022  0.65713573     0.02500
H1016       H  0.06046192  0.62907840  0.62146018     0.17000
H1017       H  0.12986166  0.62930350  0.55156452     0.16800
C1018       C  0.10351180  0.73512005  0.70177572     0.32100
C1019       C  0.10155035  0.79101462  0.74680957     0.32100
C1020       C  0.11816869  0.76615333  0.68792703    -0.04100
C1021       C  0.06865345  0.74674063  0.71371960    -0.04800
C1022       C  0.12220599  0.73256012  0.73572613    -0.04700
C1023       C  0.11782814  0.79534934  0.71217160    -0.04100
C1024       C  0.06746959  0.77574932  0.73666149    -0.04800
C1025       C  0.12044499  0.76178158  0.76003630    -0.04700
C1026       C  0.11163921  0.82197825  0.69411945    -0.30100
N1027       N  0.10728095  0.81073332  0.66077820     0.16400
C1028       C  0.11079887  0.77706785  0.65653467    -0.30100
H1029       H  0.10401435  0.76111329  0.63329931     0.18300
C1030       C  0.03640808  0.77708457  0.75187007    -0.29100
N1031       N  0.52013129  0.76111193  0.71586316     0.15100
C1032       C  0.03845115  0.73082744  0.71509416    -0.29100
C1033       C  0.11445536  0.75036799  0.79148376    -0.29400
N1034       N  0.11349119  0.71660695  0.78721600     0.15600
H1035       H  0.10562749  0.76569618  0.81438155     0.18200
C1036       C  0.11879485  0.70566539  0.75397928    -0.29400
H1037       H  0.11388779  0.68016248  0.74272123     0.18200
H1038       H  0.53127613  0.71411877  0.68428020     0.18200
H1039       H  0.10552819  0.84721536  0.70538453     0.18300
H1040       H  0.53010922  0.80703240  0.74977700     0.18200
C1041       C  0.10874233  0.92416091  0.85510738     0.88600
C1042       C  0.13427015  0.94350511  0.83276951    -0.51600
C1043       C  0.15450713  0.92257606  0.80973795     0.11500
C1044       C  0.14688351  0.88604120  0.81137255     0.22500
C1045       C  0.08880763  0.90058009  0.82814839    -0.52300
C1046       C  0.10908873  0.88070265  0.80588278     0.11600
C1047       C  0.13241535  0.90007444  0.87168629    -0.51900
C1048       C  0.15194094  0.88051485  0.84831068     0.12200
H1049       H  0.13639375  0.97055794  0.83562159     0.16700
H1050       H  0.16254802  0.86897679  0.79310715     0.02500
H1051       H  0.06144133  0.89737421  0.82899168     0.17000
H1052       H  0.13223090  0.89742263  0.89879626     0.16800
C1053       C  0.23312485  0.59650460  0.70956869     0.32100
C1054       C  0.28248900  0.60604184  0.75964424     0.32100
C1055       C  0.22145087  0.59356326  0.74530392    -0.04100
C1056       C  0.26307648  0.57151539  0.70579696    -0.04800
C1057       C  0.25087659  0.63091822  0.71337307    -0.04700
C1058       C  0.24638211  0.59808661  0.77122916    -0.04100
C1059       C  0.28930420  0.57827820  0.73079217    -0.04800
C1060       C  0.27783918  0.63547492  0.73842915    -0.04700
C1061       C  0.23664628  0.57768114  0.79504828    -0.30100
N1062       N  0.20760924  0.56168438  0.78461182     0.16400
C1063       C  0.19914255  0.57028243  0.75399822    -0.30100
H1064       H  0.17707186  0.56101914  0.73927750     0.18300
C1065       C  0.30470928  0.54944486  0.73570696    -0.29100
N1066       N  0.28672756  0.02468370  0.71640263     0.15100
C1067       C  0.26124661  0.53707054  0.70106917    -0.29100
C1068       C  0.30478778  0.64772873  0.72097221    -0.29400
N1069       N  0.29564454  0.64993697  0.68827977     0.15600
H1070       H  0.33103352  0.64524653  0.72854541     0.18200
C1071       C  0.26243489  0.64329988  0.68471907    -0.29400
H1072       H  0.25057735  0.63730124  0.65980733     0.18200
H1073       H  0.24149914  0.02200762  0.68542924     0.18200
H1074       H  0.24968673  0.57502641  0.81877058     0.18300
H1075       H  0.31958190  0.04520198  0.75619547     0.18200
C1076       C  0.39134651  0.62521738  0.55752188     0.88600
C1077       C  0.36700343  0.64718524  0.53729497    -0.51600
C1078       C  0.34787944  0.67067028  0.55826375     0.11500
C1079       C  0.35489168  0.66994656  0.59588348     0.22500
C1080       C  0.41227431  0.65133914  0.58152907    -0.52300
C1081       C  0.39265933  0.67418761  0.60164808     0.11600
C1082       C  0.36729208  0.61052180  0.58302645    -0.51900
C1083       C  0.34873058  0.63446071  0.60279636     0.12200
H1084       H  0.36487849  0.64394069  0.50958651     0.16700
H1085       H  0.33960797  0.68872713  0.61270199     0.02500
H1086       H  0.43947742  0.64925449  0.58529765     0.17000
H1087       H  0.36728741  0.58439536  0.58716330     0.16800
C1088       C  0.10800706  0.61428493  0.89330726     0.88600
C1089       C  0.08558953  0.63521363  0.87148063    -0.51600
C1090       C  0.10203915  0.64392000  0.84314751     0.11500
C1091       C  0.13808194  0.63020535  0.83841281     0.22500
C1092       C  0.11997252  0.58461392  0.86864813    -0.52300
C1093       C  0.13576790  0.59267800  0.84111936     0.11600
C1094       C  0.14068483  0.63738078  0.90038714    -0.51900
C1095       C  0.15591778  0.64630276  0.87065767     0.12200
H1096       H  0.06143696  0.64616735  0.88019956     0.16700
H1097       H  0.15045136  0.63583387  0.81435885     0.02500
H1098       H  0.11864510  0.55864601  0.87344384     0.17000
H1099       H  0.14888832  0.64752021  0.92591883     0.16800
C1100       C  0.39909491  0.77915859  0.74925890     0.32100
C1101       C  0.39856423  0.73232845  0.69392691     0.32100
C1102       C  0.38105666  0.79023979  0.71795828    -0.04100
C1103       C  0.43325169  0.76827845  0.73485102    -0.04800
C1104       C  0.38236203  0.74596079  0.75503927    -0.04700
C1105       C  0.38009162  0.76506598  0.68902218    -0.04100
C1106       C  0.43299946  0.74452643  0.70633962    -0.04800
C1107       C  0.38291700  0.72070640  0.72626426    -0.04700
C1108       C  0.38466724  0.78128217  0.66053900    -0.30100
N1109       N  0.39002030  0.81395202  0.67040031     0.16400
C1110       C  0.38765321  0.81996708  0.70479964    -0.30100
H1111       H  0.39635408  0.84284955  0.71966175     0.18300
C1112       C  0.96484108  0.72798652  0.71610622    -0.29100
N1113       N  0.98381640  0.74596149  0.74060882     0.15100
C1114       C  0.96370097  0.76753814  0.76057292    -0.29100
C1115       C  0.39050265  0.69118085  0.73957280    -0.29400
N1116       N  0.39308695  0.69750688  0.77402072     0.15600
H1117       H  0.39849170  0.66799337  0.72477157     0.18200
C1118       C  0.38784555  0.73023020  0.78360084    -0.29400
H1119       H  0.39350184  0.74272383  0.80899402     0.18200
H1120       H  0.97202371  0.78648526  0.78078212     0.18200
H1121       H  0.39064181  0.76904545  0.63511403     0.18300
H1122       H  0.97428429  0.71069478  0.69495616     0.18200
C1123       C  0.41246694  0.92406227  0.57339792     0.88600
C1124       C  0.39209391  0.90554619  0.54395387    -0.51600
C1125       C  0.37036647  0.88293120  0.55370221     0.11500
C1126       C  0.37025214  0.87947655  0.59186028     0.22500
C1127       C  0.38412005  0.93839910  0.60070533    -0.52300
C1128       C  0.36209667  0.91376597  0.61067094     0.11600
C1129       C  0.42951102  0.89656494  0.59165508    -0.51900
C1130       C  0.40696778  0.87374928  0.60140734     0.12200
H1131       H  0.39443981  0.91015474  0.51741949     0.16700
H1132       H  0.35270473  0.85964593  0.59862862     0.02500
H1133       H  0.38300892  0.96439823  0.61191374     0.17000
H1134       H  0.45604882  0.89722625  0.59924879     0.16800
C1135       C  0.40665051  0.59066697  0.87636442     0.88600
C1136       C  0.38686490  0.61016056  0.90548952    -0.51600
C1137       C  0.36632067  0.63338973  0.89536451     0.11500
C1138       C  0.36670621  0.63653256  0.85700224     0.22500
C1139       C  0.37797848  0.57706057  0.84914963    -0.52300
C1140       C  0.35711795  0.60238432  0.83873613     0.11600
C1141       C  0.42507770  0.61704713  0.85776762    -0.51900
C1142       C  0.40373915  0.64048350  0.84726686     0.12200
H1143       H  0.38833006  0.60542907  0.93205880     0.16700
H1144       H  0.35013280  0.65697057  0.84988389     0.02500
H1145       H  0.37575776  0.55098833  0.83845043     0.17000
H1146       H  0.45155012  0.61483183  0.85002219     0.16800
C1147       C  0.23552816  0.92144295  0.73787091     0.32100
C1148       C  0.28621844  0.91128731  0.68890462     0.32100
C1149       C  0.22469392  0.92308667  0.70149470    -0.04100
C1150       C  0.26516929  0.94665816  0.74162840    -0.04800
C1151       C  0.25361834  0.88726285  0.73516822    -0.04700
C1152       C  0.25035023  0.91825109  0.67626466    -0.04100
C1153       C  0.29198922  0.93990457  0.71718649    -0.04800
C1154       C  0.28097749  0.88230066  0.71052751    -0.04700
C1155       C  0.24053743  0.93657265  0.65079724    -0.30100
N1156       N  0.21079216  0.95186469  0.65980754     0.16400
C1157       C  0.20147744  0.94442451  0.69068000    -0.30100
H1158       H  0.17872974  0.95359650  0.70428554     0.18300
C1159       C  0.30849452  0.47059128  0.71281004    -0.29100
N1160       N  0.28813217  0.49346129  0.72894641     0.15100
C1161       C  0.26452910  0.47959506  0.74745632    -0.29100
C1162       C  0.30736732  0.86966476  0.72816283    -0.29400
N1163       N  0.29767263  0.86773092  0.76069338     0.15600
H1164       H  0.33376020  0.87166201  0.72086574     0.18200
C1165       C  0.26460724  0.87511538  0.76409646    -0.29400
H1166       H  0.25264226  0.88159453  0.78890019     0.18200
H1167       H  0.24208293  0.49258004  0.75806589     0.18200
H1168       H  0.25410652  0.93858412  0.62721526     0.18300
H1169       H  0.32527833  0.47556019  0.69224527     0.18200
C1170       C  0.10907368  0.90858692  0.54762684     0.88600
C1171       C  0.12367529  0.93679534  0.57272161    -0.51600
C1172       C  0.13989752  0.92659059  0.59907998     0.11500
C1173       C  0.13976416  0.88888787  0.60040443     0.22500
C1174       C  0.13972902  0.88364976  0.53844045    -0.52300
C1175       C  0.15526249  0.87293216  0.56694286     0.11600
C1176       C  0.08582054  0.88862905  0.56984110    -0.51900
C1177       C  0.10269765  0.87811147  0.59724150     0.12200
H1178       H  0.12324450  0.96316196  0.56949919     0.16700
H1179       H  0.15281294  0.88143589  0.62336753     0.02500
H1180       H  0.14594138  0.87079657  0.00589021     0.17000
H1181       H  0.05998673  0.88116105  0.56292853     0.16800
C1182       C  0.39812399  0.88730706  0.88611593     0.88600
C1183       C  0.37425855  0.86501091  0.90646055    -0.51600
C1184       C  0.35405310  0.84260201  0.88542037     0.11500
C1185       C  0.35954926  0.84472036  0.84788804     0.22500
C1186       C  0.41773531  0.86143673  0.86036189    -0.52300
C1187       C  0.39688562  0.83967271  0.84045185     0.11600
C1188       C  0.37348824  0.90360573  0.86262006    -0.51900
C1189       C  0.35375557  0.88081141  0.84308063     0.12200
H1190       H  0.37320416  0.86729130  0.93420347     0.16700
H1191       H  0.34322486  0.82698475  0.83099390     0.02500
H1192       H  0.44486147  0.86260825  0.85572868     0.17000
H1193       H  0.37352130  0.93006575  0.85979983     0.16800
C1194       C  0.27180560  0.74353704  0.55985791     0.32100
C1195       C  0.22427672  0.79334424  0.57201208     0.32100
C1196       C  0.28428662  0.77851249  0.55712569    -0.04100
C1197       C  0.24083153  0.74055899  0.53583881    -0.04800
C1198       C  0.25498937  0.74680159  0.59569821    -0.04700
C1199       C  0.26008165  0.80391629  0.56307820    -0.04100
C1200       C  0.21575922  0.76579048  0.54345620    -0.04800
C1201       C  0.22903010  0.77225054  0.60175065    -0.04700
C1202       C  0.27127256  0.82986254  0.54653182    -0.30100
N1203       N  0.30112760  0.82095365  0.53116975     0.16400
C1204       C  0.30908183  0.78964800  0.53696733    -0.30100
H1205       H  0.33150152  0.77598982  0.52730212     0.18300
C1206       C  0.20587355  0.75969053  0.00681234    -0.29100
N1207       N  0.22473272  0.74128225  0.98368982     0.15100
C1208       C  0.24914820  0.72480485  0.99864498    -0.29100
C1209       C  0.20169955  0.75615979  0.61482401    -0.29400
N1210       N  0.20943142  0.72367747  0.61581111     0.15600
H1211       H  0.17574113  0.76490465  0.61352433     0.18200
C1212       C  0.24228019  0.71880958  0.60770369    -0.29400
H1213       H  0.25282346  0.69403953  0.60045918     0.18200
H1214       H  0.27129814  0.71369852  0.98538682     0.18200
H1215       H  0.25862034  0.85362204  0.54573059     0.18300
H1216       H  0.18957921  0.77980045  0.00075524     0.18200
C1217       C  0.27651795  0.77181513  0.88003926     0.32100
C1218       C  0.22735153  0.72428126  0.86447912     0.32100
C1219       C  0.28905450  0.73611290  0.87594834    -0.04100
C1220       C  0.24805280  0.77119210  0.90663303    -0.04800
C1221       C  0.25692200  0.77443374  0.84663623    -0.04700
C1222       C  0.26362222  0.71131718  0.86841017    -0.04100
C1223       C  0.22197469  0.74736019  0.89729639    -0.04800
C1224       C  0.23011278  0.75025193  0.83892990    -0.04700
C1225       C  0.27226661  0.68574058  0.88693513    -0.30100
N1226       N  0.30028926  0.69441649  0.90536951     0.16400
C1227       C  0.31130417  0.72413643  0.89822479    -0.30100
H1228       H  0.33261014  0.73757046  0.91080191     0.18300
C1229       C  0.20864988  0.73739769  0.92591799    -0.29100
N1230       N  0.22764512  0.75082811  0.95159973     0.15100
C1231       C  0.25149311  0.77136898  0.94135780    -0.29100
C1232       C  0.20238229  0.76908824  0.83091391    -0.29400
N1233       N  0.21099957  0.80172954  0.83371947     0.15600
H1234       H  0.17633767  0.76075807  0.83244212     0.18200
C1235       C  0.24424928  0.80479390  0.84043443    -0.29400
H1236       H  0.25587605  0.82852199  0.85013525     0.18200
H1237       H  0.27245648  0.78172224  0.95707883     0.18200
H1238       H  0.25755075  0.66337302  0.88894495     0.18300
H1239       H  0.19118268  0.71695280  0.92768537     0.18200
C1240       C  0.09233245  0.92492938  0.51845431     0.44600
N1241       N  0.04957547  0.94770401  0.49495085     0.03500
C1242       C  0.05332906  0.60262022  0.93058445    -0.04400
H1243       H  0.03565086  0.61694248  0.56046323     0.09000
C1244       C  0.40799602  0.56190915  0.52471563    -0.04700
Co1245     Co  0.07000622  0.51183203  0.96966651     0.74200
N1246       N  0.04192662  0.57329919  0.52259174    -0.23900
Co1247     Co  0.00300280  0.57042715  0.97616126     0.74100
C1248       C  0.41447830  0.59783208  0.53666344     0.44700
N1249       N  0.44954097  0.97433528  0.51382886     0.03100
N1250       N  0.45957352  0.57341428  0.51146448     0.03200
N1251       N  0.09765338  0.56833283  0.93121274    -0.44800
H1252       H  0.12555738  0.97087757  0.51127913     0.09000
N1253       N  0.06667038  0.55045422  0.51911630     0.03500
N1254       N  0.46322339  0.56364532  0.93941231     0.03200
C1255       C  0.43170260  0.56806766  0.89332138     0.44800
N1256       N  0.47394285  0.95127985  0.51067211    -0.23400
C1257       C  0.09229016  0.97508513  0.90436902    -0.04300
N1258       N  0.05953112  0.92067362  0.50861569    -0.44500
N1259       N  0.45811882  0.58158698  0.91354450    -0.44700
C1260       C  0.08420002  0.94412787  0.88218929     0.44600
N1261       N  0.06996465  0.55414786  0.94237869     0.03500
N1262       N  0.46844219  0.94144996  0.92921012    -0.23400
N1263       N  0.07312194  0.97100062  0.49610794    -0.23900
N1264       N  0.44143796  0.96096513  0.93434220     0.03100
H1265       H  0.47453241  0.88987505  0.90770820     0.09000
H1266       H  0.39887913  0.52350142  0.90450618     0.09000
N1267       N  0.04359157  0.57431074  0.94293338    -0.23900
N1268       N  0.43690246  0.54905330  0.50903962    -0.23600
N1269       N  0.04745144  0.95272064  0.92558610     0.03500
C1270       C  0.08161890  0.58188159  0.56666479     0.44900
C1271       C  0.46895066  0.93269320  0.53671368    -0.04800
N1272       N  0.44107726  0.53863372  0.93792852    -0.23600
H1273       H  0.38381590  0.54909917  0.52385603     0.09000
N1274       N  0.09034134  0.55518322  0.54368088    -0.44800
H1275       H  0.48319483  0.91035850  0.53996785     0.09000
C1276       C  0.42189125  0.91389600  0.90661811     0.44700
C1277       C  0.10105201  0.95863333  0.50956349    -0.04300
Co1278     Co  0.51053621  0.94699989  0.96212792     0.73800
N1279       N  0.42849534  0.97196749  0.53999024    -0.44500
C1280       C  0.08979333  0.59933415  0.92273107     0.45000
N1281       N  0.05651679  0.93135242  0.89796372    -0.44500
Co1282     Co  0.44099638  0.50540376  0.97516082     0.73900
C1283       C  0.42062960  0.53956601  0.91053663    -0.04800
C1284       C  0.04962676  0.59439381  0.55155978    -0.04400
N1285       N  0.06883088  0.97852690  0.92967570    -0.23900
N1286       N  0.44731514  0.60223392  0.52748762    -0.44700
H1287       H  0.03786506  0.62488266  0.93130064     0.09000
C1288       C  0.45880760  0.91205568  0.91137253    -0.04800
Cl1289     Cl  0.00661829  0.50842310  0.96915334    -0.47800
C1290       C  0.43860040  0.94645255  0.55710571     0.44700
H1291       H  0.11427917  0.99099080  0.90322495     0.09000
N1292       N  0.41334452  0.94541479  0.92120411    -0.44500
C1293       C  0.30410708  0.79806471  0.88937365    -0.11100
C1294       C  0.32715796  0.81900608  0.89357570    -0.12700
C1295       C  0.17988789  0.84518321  0.56828764    -0.11100
C1296       C  0.19909849  0.82213205  0.57346956    -0.12700
C1297       C  0.31887317  0.87791056  0.78828558    -0.11100
C1298       C  0.33486512  0.88623325  0.81372551    -0.12700
C1299       C  0.16240130  0.94846523  0.61859411    -0.11100
C1300       C  0.18590115  0.95640206  0.63644575    -0.12700
C1301       C  0.34338166  0.65221987  0.91765475    -0.11100
C1302       C  0.32114739  0.67208490  0.91900425    -0.12700
C1303       C  0.34796915  0.86373628  0.53085948    -0.11100
C1304       C  0.32562658  0.84400873  0.52496124    -0.12700
C1305       C  0.33585992  0.91513961  0.63888372    -0.11100
C1306       C  0.31403980  0.91058139  0.66092574    -0.12700
C1307       C  0.40253294  0.80351694  0.78050665    -0.11100
C1308       C  0.40529888  0.82033886  0.80810814    -0.12700
C1309       C  0.40489739  0.67590310  0.79662488    -0.11100
C1310       C  0.41063596  0.65936468  0.81941008    -0.12700
C1311       C  0.41258267  0.85266300  0.62758327    -0.11100
C1312       C  0.40435553  0.83525982  0.64886622    -0.12700
C1313       C  0.20089671  0.69615777  0.86140014    -0.11100
C1314       C  0.18121359  0.67343954  0.86713049    -0.12700
C1315       C  0.29871015  0.71618116  0.55248757    -0.11100
C1316       C  0.32120265  0.69452426  0.54972647    -0.12700
C1317       C  0.40107358  0.70823747  0.66236823    -0.11100
C1318       C  0.40254662  0.69230718  0.63418082    -0.12700
C1319       C  0.30950915  0.60639709  0.78829822    -0.11100
C1320       C  0.33088641  0.60154729  0.81062504    -0.12700
C1321       C  0.18136672  0.55852248  0.80690359    -0.11100
C1322       C  0.15739014  0.56876736  0.82302453    -0.12700
C1323       C  0.31681877  0.63968365  0.66042315    -0.11100
C1324       C  0.33176423  0.63098498  0.63419004    -0.12700
C1325       C  0.17169464  0.85206630  0.85392312    -0.11100
C1326       C  0.18889293  0.82781665  0.84545402    -0.12700
C1327       C  0.20669367  0.92759336  0.76482120    -0.11100
C1328       C  0.18285053  0.93007671  0.78597714    -0.12700
C1329       C  0.10115739  0.69573189  0.81042473    -0.11100
C1330       C  0.09476472  0.67348634  0.82728910    -0.12700
C1331       C  0.09669635  0.83112792  0.63624424    -0.11100
C1332       C  0.09241188  0.85186371  0.61691885    -0.12700
C1333       C  0.09867255  0.84981216  0.78644407    -0.11100
C1334       C  0.09881990  0.82243726  0.77009634    -0.12700
C1335       C  0.16957886  0.67320537  0.59772416    -0.11100
C1336       C  0.18649678  0.69773377  0.60597761    -0.12700
C1337       C  0.18074616  0.59022569  0.66146584    -0.11100
C1338       C  0.20467084  0.59125506  0.68233246    -0.12700
C1339       C  0.10028302  0.67544243  0.66327896    -0.11100
C1340       C  0.10187691  0.70332890  0.67866177    -0.12700
C1341       C  0.60611356  0.09441797  0.09021469     0.88600
C1342       C  0.62996169  0.07300802  0.11191959    -0.51600
C1343       C  0.65148566  0.09212647  0.13502286     0.11500
C1344       C  0.64676952  0.12930044  0.13406993     0.22500
C1345       C  0.58782693  0.11908522  0.11767579    -0.49400
C1346       C  0.60947085  0.13736743  0.13995978     0.11600
C1347       C  0.63137919  0.11719581  0.07388186    -0.51900
C1348       C  0.65216691  0.13518680  0.09726534     0.12200
H1349       H  0.63007006  0.04586473  0.10868966     0.16700
H1350       H  0.66366604  0.14489523  0.15240653     0.02500
H1351       H  0.56081313  0.12440366  0.11700145     0.17000
H1352       H  0.63091397  0.12072853  0.04699162     0.16800
C1353       C  0.60533207  0.22874012  0.19751711     0.32100
C1354       C  0.60459355  0.28471809  0.24276817     0.32100
C1355       C  0.61826631  0.25999426  0.18293615    -0.04100
C1356       C  0.57108324  0.23960125  0.21188028    -0.04800
C1357       C  0.62622693  0.22641082  0.23018843    -0.04700
C1358       C  0.61848598  0.28917282  0.20710752    -0.04100
C1359       C  0.57061075  0.26851503  0.23479288    -0.04800
C1360       C  0.62497274  0.25556361  0.25484485    -0.04700
C1361       C  0.61124148  0.31564990  0.18921221    -0.30100
N1362       N  0.60612328  0.30428002  0.15599660     0.16400
C1363       C  0.60978275  0.27063408  0.15170176    -0.30100
H1364       H  0.60286055  0.25457250  0.12856766     0.18300
C1365       C  0.53847488  0.27321070  0.24677618    -0.29100
N1366       N  0.02180222  0.24905796  0.23724826     0.15100
C1367       C  0.53934654  0.22660233  0.21013461    -0.29100
C1368       C  0.62040361  0.24348272  0.28626231    -0.29400
N1369       N  0.61994428  0.20964194  0.28165063     0.15600
H1370       H  0.61194014  0.25839600  0.30955577     0.18200
C1371       C  0.62435757  0.19919575  0.24819403    -0.29400
H1372       H  0.61945976  0.17373143  0.23679462     0.18200
H1373       H  0.03402822  0.20521474  0.20126835     0.18200
H1374       H  0.60556437  0.34096474  0.20053468     0.18300
H1375       H  0.03058024  0.29646411  0.26928348     0.18200
C1376       C  0.61191112  0.41863710  0.35105765     0.88600
C1377       C  0.63773184  0.43802871  0.32902486    -0.51600
C1378       C  0.65747749  0.41732741  0.30528626     0.11500
C1379       C  0.64921429  0.38078150  0.30583110     0.22500
C1380       C  0.59149031  0.39566567  0.32366562    -0.52300
C1381       C  0.61136299  0.37579436  0.30070282     0.11600
C1382       C  0.63550599  0.39342871  0.36648883    -0.51900
C1383       C  0.65462395  0.37408951  0.34228660     0.12200
H1384       H  0.64061707  0.46501579  0.33279914     0.16700
H1385       H  0.66453408  0.36403743  0.28692647     0.02500
H1386       H  0.56416547  0.39243269  0.32507455     0.17000
H1387       H  0.63581229  0.39019182  0.39344622     0.16800
C1388       C  0.73145810  0.08835147  0.20591745     0.32100
C1389       C  0.78247302  0.09964383  0.25396233     0.32100
C1390       C  0.72195108  0.08355711  0.24201187    -0.04100
C1391       C  0.76290057  0.06539220  0.19998007    -0.04800
C1392       C  0.74691038  0.12380458  0.21014746    -0.04700
C1393       C  0.74788305  0.08897975  0.26651200    -0.04100
C1394       C  0.79004668  0.07303554  0.22396611    -0.04800
C1395       C  0.77437218  0.12955607  0.23444548    -0.04700
C1396       C  0.74024179  0.06941569  0.29153372    -0.30100
N1397       N  0.71057410  0.05350818  0.28374156     0.16400
C1398       C  0.70047085  0.06046425  0.25278528    -0.30100
H1399       H  0.67749488  0.05101848  0.23983728     0.18300
C1400       C  0.80642497  0.04443675  0.22830210    -0.29100
N1401       N  0.78838787  0.52148004  0.21108611     0.15100
C1402       C  0.76208055  0.03096130  0.19530997    -0.29100
C1403       C  0.79927190  0.14500580  0.21720429    -0.29400
N1404       N  0.78874079  0.14776542  0.18506374     0.15600
H1405       H  0.82591770  0.14456557  0.22405390     0.18200
C1406       C  0.75626456  0.13807685  0.18180670    -0.29400
H1407       H  0.74422588  0.13184208  0.15701689     0.18200
H1408       H  0.74154537  0.52042275  0.18290051     0.18200
H1409       H  0.75451625  0.06819969  0.31486698     0.18300
H1410       H  0.82393143  0.54065849  0.24903203     0.18200
C1411       C  0.89550071  0.12649021  0.06293482     0.88600
C1412       C  0.87458351  0.14960475  0.04117009    -0.51600
C1413       C  0.85493798  0.17344318  0.06077170     0.11500
C1414       C  0.85846416  0.17227442  0.09890260     0.22500
C1415       C  0.91574612  0.15113237  0.08919470    -0.52300
C1416       C  0.89582038  0.17463874  0.10809748     0.11600
C1417       C  0.86825288  0.11241234  0.08561528    -0.51900
C1418       C  0.84937809  0.13691718  0.10409535     0.12200
H1419       H  0.87412932  0.14618694  0.01337834     0.16700
H1420       H  0.84272676  0.19147238  0.11464529     0.02500
H1421       H  0.94245923  0.14787876  0.09480410     0.17000
H1422       H  0.86568595  0.08609080  0.08848982     0.16800
C1423       C  0.60935257  0.11191610  0.39391956     0.88600
C1424       C  0.58870503  0.13015620  0.36808629    -0.51600
C1425       C  0.60824285  0.13883699  0.34149384     0.11500
C1426       C  0.64518140  0.12763461  0.34241386     0.22500
C1427       C  0.62585082  0.08229469  0.37228616    -0.52300
C1428       C  0.64447123  0.09042967  0.34653122     0.11600
C1429       C  0.63933226  0.13726333  0.40419181    -0.51900
C1430       C  0.65756831  0.14593288  0.37627991     0.12200
H1431       H  0.56294284  0.13916702  0.37285680     0.16700
H1432       H  0.66042751  0.13330356  0.32002793     0.02500
H1433       H  0.62406265  0.05636621  0.37709658     0.17000
H1434       H  0.64348907  0.14910879  0.43018522     0.16800
C1435       C  0.90149106  0.28241542  0.25504097     0.32100
C1436       C  0.90150734  0.23464061  0.20025150     0.32100
C1437       C  0.89122152  0.29492052  0.22119966    -0.04100
C1438       C  0.93499398  0.26532459  0.24639290    -0.04800
C1439       C  0.87789866  0.25256692  0.25842488    -0.04700
C1440       C  0.89046877  0.26950661  0.19286989    -0.04100
C1441       C  0.93520826  0.24120015  0.21813356    -0.04800
C1442       C  0.87864028  0.22668531  0.22998461    -0.04700
C1443       C  0.89918141  0.28422989  0.16441438    -0.30100
N1444       N  0.90580102  0.31677644  0.17380941     0.16400
C1445       C  0.90177748  0.32371487  0.20812233    -0.30100
H1446       H  0.90950782  0.34691475  0.22304579     0.18300
C1447       C  0.46553784  0.22958465  0.20641764    -0.29100
N1448       N  0.48444604  0.24671043  0.23140325     0.15100
C1449       C  0.46459054  0.26760031  0.25239922    -0.29100
C1450       C  0.88002769  0.19699433  0.24448448    -0.29400
N1451       N  0.87932775  0.20376738  0.27895980     0.15600
H1452       H  0.88791735  0.17310117  0.23104702     0.18200
C1453       C  0.87694859  0.23694148  0.28757316    -0.29400
H1454       H  0.88196801  0.24921031  0.31320589     0.18200
H1455       H  0.47290883  0.28434957  0.27448737     0.18200
H1456       H  0.90465541  0.27114349  0.13923781     0.18300
H1457       H  0.47469024  0.21156495  0.18574345     0.18200
C1458       C  0.91527186  0.42217906  0.06945988     0.88600
C1459       C  0.89542844  0.40182254  0.04097743    -0.51600
C1460       C  0.87549121  0.37840376  0.05177225     0.11500
C1461       C  0.87676849  0.37574949  0.09019583     0.22500
C1462       C  0.88674089  0.43549709  0.09698339    -0.52300
C1463       C  0.86673998  0.40992608  0.10819705     0.11600
C1464       C  0.93462961  0.39648259  0.08827316    -0.51900
C1465       C  0.91411067  0.37273197  0.09944156     0.12200
H1466       H  0.89592312  0.40655481  0.01437197     0.16700
H1467       H  0.86078914  0.35512196  0.09781195     0.02500
H1468       H  0.88404680  0.46161833  0.10734772     0.17000
H1469       H  0.96112727  0.39942634  0.09573379     0.16800
C1470       C  0.90320639  0.09193513  0.37470690     0.88600
C1471       C  0.88080596  0.10683614  0.40436947    -0.51600
C1472       C  0.85725549  0.12816831  0.39546119     0.11500
C1473       C  0.85725170  0.13367936  0.35768744     0.22500
C1474       C  0.87717663  0.07658918  0.34577409    -0.52300
C1475       C  0.85321284  0.09966812  0.33648881     0.11600
C1476       C  0.91788395  0.12221103  0.35907133    -0.51900
C1477       C  0.89339418  0.14349769  0.34984082     0.12200
H1478       H  0.88424024  0.10199911  0.43072144     0.16700
H1479       H  0.83803064  0.15230985  0.35152035     0.02500
H1480       H  0.87936494  0.05135627  0.33257509     0.17000
H1481       H  0.94446615  0.12430805  0.35228764     0.16800
C1482       C  0.74030282  0.41656366  0.23526660     0.32100
C1483       C  0.79191391  0.40657956  0.18725014     0.32100
C1484       C  0.72966160  0.41545985  0.19847013    -0.04100
C1485       C  0.76844629  0.44341601  0.23781920    -0.04800
C1486       C  0.76030828  0.38362785  0.23480142    -0.04700
C1487       C  0.75581324  0.41064037  0.17361094    -0.04100
C1488       C  0.79570606  0.43687092  0.21388499    -0.04800
C1489       C  0.78835553  0.37901292  0.21092952    -0.04700
C1490       C  0.74577584  0.42799526  0.14741658    -0.30100
N1491       N  0.71574194  0.44287140  0.15577514     0.16400
C1492       C  0.70609626  0.43579493  0.18662237    -0.30100
H1493       H  0.68315624  0.44505632  0.19981552     0.18300
C1494       C  0.80709516  0.96444886  0.21023687    -0.29100
N1495       N  0.78826949  0.98902671  0.22555390     0.15100
C1496       C  0.76319007  0.97714327  0.24408657    -0.29100
C1497       C  0.81521852  0.36949611  0.23026282    -0.29400
N1498       N  0.80481221  0.36843547  0.26274873     0.15600
H1499       H  0.84161607  0.37272897  0.22358520     0.18200
C1500       C  0.77131235  0.37377204  0.26480970    -0.29400
H1501       H  0.75832136  0.38047111  0.28903695     0.18200
H1502       H  0.74134754  0.99167490  0.25380231     0.18200
H1503       H  0.75969515  0.43012913  0.12406392     0.18300
H1504       H  0.82444704  0.96770691  0.18956669     0.18200
C1505       C  0.61051584  0.40452054  0.04540454     0.88600
C1506       C  0.62638455  0.43163090  0.07084881    -0.51600
C1507       C  0.64264315  0.42014144  0.09650164     0.11500
C1508       C  0.64126550  0.38232531  0.09680613     0.22500
C1509       C  0.64039877  0.37888827  0.03492255    -0.52300
C1510       C  0.65599031  0.36694292  0.06281275     0.11600
C1511       C  0.58704871  0.38454669  0.06728521    -0.51900
C1512       C  0.60387436  0.37267356  0.09385491     0.12200
H1513       H  0.62718040  0.45809157  0.06808554     0.16700
H1514       H  0.65426206  0.37381616  0.11929588     0.02500
H1515       H  0.65474226  0.37995365  0.51337617     0.17000
H1516       H  0.56093424  0.37796924  0.06062587     0.16800
C1517       C  0.89684109  0.38888506  0.39320851     0.88600
C1518       C  0.87226877  0.36688317  0.41308817    -0.51600
C1519       C  0.85211268  0.34475494  0.39171220     0.11500
C1520       C  0.85834058  0.34689793  0.35417562     0.22500
C1521       C  0.91652082  0.36281422  0.36777520    -0.52300
C1522       C  0.89583022  0.34140916  0.34728409     0.11600
C1523       C  0.87301734  0.40556559  0.36932152    -0.51900
C1524       C  0.85336778  0.38316549  0.34923524     0.12200
H1525       H  0.87083405  0.36904507  0.44081294     0.16700
H1526       H  0.84204888  0.32941238  0.33699357     0.02500
H1527       H  0.94372104  0.36381150  0.36353316     0.17000
H1528       H  0.87420595  0.43189508  0.36603255     0.16800
C1529       C  0.77637679  0.24143554  0.05683454     0.32100
C1530       C  0.72661059  0.28882075  0.06762922     0.32100
C1531       C  0.78818292  0.27706584  0.05777290    -0.04100
C1532       C  0.74808575  0.23902729  0.02981633    -0.04800
C1533       C  0.75647668  0.24151275  0.09057497    -0.04700
C1534       C  0.76272937  0.30162356  0.06298059    -0.04100
C1535       C  0.72167713  0.26294217  0.03674306    -0.04800
C1536       C  0.72943154  0.26572234  0.09591199    -0.04700
C1537       C  0.77322844  0.32746922  0.04568860    -0.30100
N1538       N  0.80333540  0.31926637  0.03061182     0.16400
C1539       C  0.81237902  0.28870481  0.03737725    -0.30100
H1540       H  0.83509034  0.27552902  0.02771883     0.18300
C1541       C  0.70040756  0.27640165  0.51383515    -0.29100
N1542       N  0.71382290  0.25738870  0.48729580     0.15100
C1543       C  0.73884488  0.23784702  0.49757976    -0.29100
C1544       C  0.70186787  0.24785553  0.10605248    -0.29400
N1545       N  0.71079612  0.21560136  0.10669781     0.15600
H1546       H  0.67570919  0.25576515  0.10400901     0.18200
C1547       C  0.74401339  0.21212983  0.09977588    -0.29400
H1548       H  0.75579505  0.18796021  0.09231756     0.18200
H1549       H  0.75778908  0.22534677  0.48057898     0.18200
H1550       H  0.75954830  0.35046211  0.04369273     0.18300
H1551       H  0.68515493  0.29836272  0.51145951     0.18200
C1552       C  0.77431113  0.27398582  0.38783998     0.32100
C1553       C  0.72533336  0.22627293  0.37316895     0.32100
C1554       C  0.78478554  0.23850863  0.39192365    -0.04100
C1555       C  0.74180142  0.27878152  0.40966039    -0.04800
C1556       C  0.75977339  0.27116971  0.35100340    -0.04700
C1557       C  0.75960541  0.21431742  0.38454466    -0.04100
C1558       C  0.71621000  0.25432335  0.40101081    -0.04800
C1559       C  0.73322782  0.24659968  0.34347045    -0.04700
C1560       C  0.76689504  0.18874555  0.40319319    -0.30100
N1561       N  0.79570320  0.19605897  0.42091905     0.16400
C1562       C  0.80651731  0.22656812  0.41490467    -0.30100
H1563       H  0.82893892  0.23906711  0.42614754     0.18300
C1564       C  0.69831179  0.25027758  0.42951040    -0.29100
N1565       N  0.71360319  0.26838705  0.45556606     0.15100
C1566       C  0.73956296  0.28607380  0.44444440    -0.29100
C1567       C  0.70750197  0.26338348  0.32863191    -0.29400
N1568       N  0.71621835  0.29573970  0.32856553     0.15600
H1569       H  0.68124680  0.25529193  0.32842427     0.18200
C1570       C  0.74873855  0.29962397  0.33843759    -0.29400
H1571       H  0.75962104  0.32407856  0.34654153     0.18200
H1572       H  0.75968119  0.29716243  0.46087884     0.18200
H1573       H  0.75244873  0.16589635  0.40338894     0.18300
H1574       H  0.68170608  0.22943567  0.43256597     0.18200
C1575       C  0.59304023  0.42214806  0.01759330     0.44600
N1576       N  0.54900443  0.44647635  0.99793198     0.03500
C1577       C  0.55351154  0.10180618  0.43136177    -0.04400
H1578       H  0.53509098  0.11209475  0.05771607     0.09000
C1579       C  0.91012825  0.06350849  0.02972073    -0.04700
Co1580     Co  0.57130166  0.01266253  0.47313495     0.74200
N1581       N  0.54162317  0.06989062  0.01819916    -0.23900
Co1582     Co  0.50488522  0.07180127  0.48097119     0.74100
C1583       C  0.91825099  0.09859484  0.04326995     0.44700
N1584       N  0.94818587  0.47178297  0.00693899     0.03100
N1585       N  0.96187094  0.07401272  0.01619968     0.03200
N1586       N  0.59763582  0.06714127  0.43226065    -0.44800
H1587       H  0.62594167  0.46829010  0.01042627     0.09000
N1588       N  0.56625410  0.04695855  0.01417219     0.03500
N1589       N  0.96435078  0.06481172  0.43397474     0.03200
C1590       C  0.93064971  0.07031690  0.38972364     0.44800
N1591       N  0.97309664  0.44929192  0.00399660    -0.23400
C1592       C  0.59421676  0.47209111  0.39902200    -0.04300
N1593       N  0.55974491  0.41865041  0.00953111    -0.44500
N1594       N  0.95724886  0.08405985  0.40956996    -0.44700
C1595       C  0.58776314  0.43920441  0.37903134     0.44600
N1596       N  0.57040929  0.05420916  0.44542484     0.03500
N1597       N  0.96791604  0.44308034  0.43451910    -0.23400
N1598       N  0.57266920  0.46965135  0.99861522    -0.23900
N1599       N  0.94117380  0.46298172  0.43910799     0.03100
H1600       H  0.97306268  0.39073081  0.41568583     0.09000
H1601       H  0.89963789  0.02447171  0.40027466     0.09000
N1602       N  0.54431553  0.07467039  0.44622545    -0.23900
N1603       N  0.93834118  0.05042197  0.01312330    -0.23600
N1604       N  0.54956882  0.45035058  0.42119658     0.03500
C1605       C  0.58074405  0.07628909  0.06285541     0.44900
C1606       C  0.96962564  0.43163348  0.03088793    -0.04800
N1607       N  0.94289313  0.03916720  0.43217922    -0.23600
H1608       H  0.88549891  0.05153682  0.02863774     0.09000
N1609       N  0.58954422  0.05040853  0.03906486    -0.44800
H1610       H  0.98510266  0.41027646  0.03484712     0.09000
C1611       C  0.92072303  0.41516353  0.41394781     0.44700
C1612       C  0.60126670  0.45642287  0.00992196    -0.04300
Co1613     Co  0.00978510  0.44917201  0.46762170     0.73800
N1614       N  0.92793980  0.46965148  0.03381809    -0.44500
C1615       C  0.58966068  0.09751707  0.42257212     0.45000
N1616       N  0.55990549  0.42730197  0.39533815    -0.44500
Co1617     Co  0.94228612  0.00638209  0.46976166     0.73900
C1618       C  0.92159189  0.04042507  0.40558572    -0.04800
C1619       C  0.54909448  0.08980272  0.04798293    -0.04400
N1620       N  0.57005835  0.47689144  0.42385588    -0.23900
N1621       N  0.95085474  0.10266676  0.03349728    -0.44700
H1622       H  0.53816713  0.12402285  0.43098563     0.09000
C1623       C  0.95769881  0.41316562  0.41825507    -0.04800
Cl1624     Cl  0.50788262  0.00992311  0.47471320    -0.47800
C1625       C  0.93953752  0.44512603  0.05163557     0.44700
H1626       H  0.61594285  0.48819950  0.39723426     0.09000
N1627       N  0.91276586  0.44728666  0.42703170    -0.44500
C1628       C  0.80202539  0.30020155  0.39641821    -0.11100
C1629       C  0.82507953  0.32119418  0.39981945    -0.12700
C1630       C  0.68067685  0.33917673  0.06335601    -0.11100
C1631       C  0.70026441  0.31648216  0.06863816    -0.12700
C1632       C  0.82450398  0.38000252  0.29110389    -0.11100
C1633       C  0.83801409  0.38871245  0.31792908    -0.12700
C1634       C  0.66705798  0.44047689  0.11502128    -0.11100
C1635       C  0.69115606  0.44762116  0.13223302    -0.12700
C1636       C  0.83696136  0.14827033  0.41982055    -0.11100
C1637       C  0.81770661  0.17078921  0.42717746    -0.12700
C1638       C  0.85119160  0.36055546  0.03017321    -0.11100
C1639       C  0.82763374  0.34237286  0.02436285    -0.12700
C1640       C  0.84098816  0.41068354  0.13679045    -0.11100
C1641       C  0.81978496  0.40592834  0.15933861    -0.12700
C1642       C  0.90391305  0.30697148  0.28634772    -0.11100
C1643       C  0.90499396  0.32306174  0.31451791    -0.12700
C1644       C  0.89052001  0.18247914  0.30212885    -0.11100
C1645       C  0.89749861  0.16542291  0.32412957    -0.12700
C1646       C  0.92207642  0.35449229  0.12760905    -0.11100
C1647       C  0.91725757  0.33819427  0.15081965    -0.12700
C1648       C  0.69945928  0.19820902  0.37038881    -0.11100
C1649       C  0.68067152  0.17479496  0.37514592    -0.12700
C1650       C  0.80466575  0.21577705  0.05077413    -0.11100
C1651       C  0.82838725  0.19578863  0.04988408    -0.12700
C1652       C  0.90372354  0.20989881  0.16893103    -0.11100
C1653       C  0.90462052  0.19314757  0.14102425    -0.12700
C1654       C  0.80974318  0.10124097  0.28229392    -0.11100
C1655       C  0.83000041  0.09762560  0.30588814    -0.12700
C1656       C  0.68611882  0.05359739  0.30864840    -0.11100
C1657       C  0.66489696  0.06600143  0.32744328    -0.12700
C1658       C  0.81017606  0.14030914  0.15694697    -0.11100
C1659       C  0.82739955  0.13318830  0.13199908    -0.12700
C1660       C  0.67521361  0.34561648  0.34652314    -0.11100
C1661       C  0.69326968  0.32183622  0.33819615    -0.12700
C1662       C  0.71089374  0.42255927  0.26169270    -0.11100
C1663       C  0.68653887  0.42492564  0.28230634    -0.12700
C1664       C  0.60813475  0.18832483  0.30481130    -0.11100
C1665       C  0.60164126  0.16657703  0.32241037    -0.12700
C1666       C  0.59612081  0.32485686  0.13147210    -0.11100
C1667       C  0.59275572  0.34608828  0.11260415    -0.12700
C1668       C  0.60111155  0.34424737  0.28186015    -0.11100
C1669       C  0.60193174  0.31647920  0.26599544    -0.12700
C1670       C  0.67187616  0.16380409  0.09186409    -0.11100
C1671       C  0.68878904  0.18861206  0.09826069    -0.12700
C1672       C  0.67867598  0.08194479  0.15847519    -0.11100
C1673       C  0.70239616  0.08256900  0.17949977    -0.12700
C1674       C  0.60156118  0.16947971  0.15863117    -0.11100
C1675       C  0.60312703  0.19720230  0.17423248    -0.12700
C1676       C  0.61169312  0.10092076  0.59141185     0.88600
C1677       C  0.63785605  0.08122668  0.61270663    -0.51600
C1678       C  0.65824187  0.10180378  0.63591012     0.11500
C1679       C  0.65030482  0.13842976  0.63546502     0.22500
C1680       C  0.59214962  0.12387755  0.61946522    -0.49400
C1681       C  0.61268878  0.14355615  0.64174767     0.11600
C1682       C  0.63471029  0.12607937  0.57531428    -0.51900
C1683       C  0.65442699  0.14539827  0.59889192     0.12200
H1684       H  0.64010203  0.05417521  0.60925094     0.16700
H1685       H  0.66616432  0.15504998  0.65395472     0.02500
H1686       H  0.56482869  0.12747214  0.61888743     0.17000
H1687       H  0.63345968  0.12997784  0.54855632     0.16800
C1688       C  0.60445413  0.23554101  0.69706868     0.32100
C1689       C  0.60111755  0.29155596  0.74149444     0.32100
C1690       C  0.62201555  0.26568715  0.68445616    -0.04100
C1691       C  0.56901095  0.24847892  0.70536630    -0.04800
C1692       C  0.61975882  0.23249360  0.73242873    -0.04700
C1693       C  0.62093249  0.29504167  0.70850157    -0.04100
C1694       C  0.56727289  0.27792579  0.72820569    -0.04800
C1695       C  0.61714579  0.26165708  0.75645153    -0.04700
C1696       C  0.61709700  0.32158012  0.68985390    -0.30100
N1697       N  0.61443176  0.31011704  0.65641726     0.16400
C1698       C  0.61726714  0.27645866  0.65256521    -0.30100
H1699       H  0.61092578  0.26050615  0.62918435     0.18300
C1700       C  0.53722343  0.27740402  0.74520297    -0.29100
N1701       N  0.02105726  0.27721977  0.69866757     0.15100
C1702       C  0.53996498  0.23100755  0.70921491    -0.29100
C1703       C  0.60910374  0.25025705  0.78751546    -0.29400
N1704       N  0.60829066  0.21640564  0.78324215     0.15600
H1705       H  0.59989309  0.26565854  0.81018991     0.18200
C1706       C  0.61493788  0.20551893  0.75025044    -0.29400
H1707       H  0.61098741  0.17992448  0.73876232     0.18200
H1708       H  0.03032256  0.22993896  0.66715357     0.18200
H1709       H  0.61051816  0.34689144  0.70051664     0.18300
H1710       H  0.03342855  0.32009056  0.73530302     0.18200
C1711       C  0.60811289  0.42105355  0.85268389     0.88600
C1712       C  0.63590862  0.44068533  0.83311316    -0.51600
C1713       C  0.65550235  0.42039770  0.80888443     0.11500
C1714       C  0.64518809  0.38406756  0.80683805     0.22500
C1715       C  0.58760333  0.40093684  0.82341713    -0.52300
C1716       C  0.60734355  0.38145590  0.80009239     0.11600
C1717       C  0.62935194  0.39365794  0.86715021    -0.51900
C1718       C  0.64835811  0.37478273  0.84271035     0.12200
H1719       H  0.63987643  0.46746827  0.83854440     0.16700
H1720       H  0.66037554  0.36757105  0.78759956     0.02500
H1721       H  0.56011115  0.39877769  0.82387680     0.17000
H1722       H  0.62804326  0.38861108  0.89356637     0.16800
C1723       C  0.73898794  0.10135086  0.70797800     0.32100
C1724       C  0.78948292  0.10891712  0.75725048     0.32100
C1725       C  0.72777160  0.09947128  0.74423502    -0.04100
C1726       C  0.76772858  0.07524568  0.70386214    -0.04800
C1727       C  0.75834573  0.13495500  0.71139197    -0.04700
C1728       C  0.75325276  0.10306285  0.76964023    -0.04100
C1729       C  0.79440881  0.08056112  0.72851625    -0.04800
C1730       C  0.78567056  0.13847767  0.73612701    -0.04700
C1731       C  0.74217689  0.08525549  0.79512113    -0.30100
N1732       N  0.71191227  0.07125177  0.78570616     0.16400
C1733       C  0.70341846  0.07919190  0.75477916    -0.30100
H1734       H  0.68052284  0.07100217  0.74090303     0.18300
C1735       C  0.80770707  0.05064574  0.73336388    -0.29100
N1736       N  0.79302127  0.51953686  0.71071599     0.15100
C1737       C  0.76405427  0.04103686  0.69839005    -0.29100
C1738       C  0.81272827  0.15058193  0.71887730    -0.29400
N1739       N  0.80329104  0.15392417  0.68655488     0.15600
H1740       H  0.83900927  0.14766528  0.72616896     0.18200
C1741       C  0.77002059  0.14748046  0.68291884    -0.29400
H1742       H  0.75797869  0.14210169  0.65803130     0.18200
H1743       H  0.74715805  0.51433561  0.68100315     0.18200
H1744       H  0.75532008  0.08248669  0.81876026     0.18300
H1745       H  0.82625071  0.54214257  0.74879214     0.18200
C1746       C  0.89422050  0.12831584  0.55299090     0.88600
C1747       C  0.86883656  0.14886874  0.53246263    -0.51600
C1748       C  0.85012724  0.17294584  0.55306605     0.11500
C1749       C  0.85852846  0.17401236  0.59069445     0.22500
C1750       C  0.91562873  0.15549888  0.57509344    -0.52300
C1751       C  0.89646002  0.17879889  0.59510840     0.11600
C1752       C  0.87149834  0.11457657  0.58002148    -0.51900
C1753       C  0.85329782  0.13893387  0.59939486     0.12200
H1754       H  0.86572563  0.14428442  0.50487342     0.16700
H1755       H  0.84351363  0.19321808  0.60725736     0.02500
H1756       H  0.94289505  0.15343711  0.57846128     0.17000
H1757       H  0.87224553  0.08883142  0.58544708     0.16800
C1758       C  0.60536789  0.11472031  0.89191035     0.88600
C1759       C  0.58330143  0.13497795  0.86911103    -0.51600
C1760       C  0.60086231  0.14473323  0.84189467     0.11500
C1761       C  0.63758651  0.13263255  0.83912240     0.22500
C1762       C  0.61977622  0.08573223  0.86758683    -0.52300
C1763       C  0.63682539  0.09499381  0.84114638     0.11600
C1764       C  0.63685185  0.13883607  0.90110750    -0.51900
C1765       C  0.65331952  0.14854015  0.87247296     0.12200
H1766       H  0.55796582  0.14406153  0.87606630     0.16700
H1767       H  0.65096686  0.13928791  0.81599672     0.02500
H1768       H  0.61957796  0.05971658  0.87228884     0.17000
H1769       H  0.64391647  0.14837849  0.92716393     0.16800
C1770       C  0.90500798  0.28002191  0.74492038     0.32100
C1771       C  0.90418017  0.23435357  0.68858063     0.32100
C1772       C  0.88100499  0.28900643  0.71653895    -0.04100
C1773       C  0.93805729  0.27496788  0.72568370    -0.04800
C1774       C  0.89496051  0.24463678  0.75110965    -0.04700
C1775       C  0.87974339  0.26412552  0.68714995    -0.04100
C1776       C  0.93749938  0.25197620  0.69663186    -0.04800
C1777       C  0.89531214  0.22028311  0.72199257    -0.04700
C1778       C  0.87843995  0.28117848  0.65892582    -0.30100
N1779       N  0.88170095  0.31410975  0.66884204     0.16400
C1780       C  0.88255563  0.31941532  0.70337124    -0.30100
H1781       H  0.89133665  0.34258136  0.71765130     0.18300
C1782       C  0.46654604  0.22697268  0.71302309    -0.29100
N1783       N  0.48620248  0.24369019  0.73769095     0.15100
C1784       C  0.46656116  0.26400209  0.75963456    -0.29100
C1785       C  0.90591251  0.19079706  0.73368171    -0.29400
N1786       N  0.91027054  0.19649046  0.76805625     0.15600
H1787       H  0.91300553  0.16787280  0.71787782     0.18200
C1788       C  0.90394602  0.22886682  0.77874170    -0.29400
H1789       H  0.90939883  0.24101801  0.80431439     0.18200
H1790       H  0.47548131  0.28206578  0.78036763     0.18200
H1791       H  0.88331869  0.26984133  0.63291205     0.18300
H1792       H  0.47549317  0.21132426  0.69041104     0.18200
C1793       C  0.90890203  0.42250809  0.56977230     0.88600
C1794       C  0.89069782  0.40445927  0.53870112    -0.51600
C1795       C  0.86823314  0.38165093  0.54630676     0.11500
C1796       C  0.86503829  0.37762280  0.58432970     0.22500
C1797       C  0.87892537  0.43646959  0.59521688    -0.52300
C1798       C  0.85607704  0.41171326  0.60327836     0.11600
C1799       C  0.92430285  0.39465754  0.58882331    -0.51900
C1800       C  0.90080039  0.37171872  0.59676003     0.12200
H1801       H  0.89523750  0.40930854  0.51250901     0.16700
H1802       H  0.84681565  0.35767260  0.58935746     0.02500
H1803       H  0.87776350  0.46218285  0.60730335     0.17000
H1804       H  0.94999041  0.39569337  0.59895015     0.16800
C1805       C  0.91324730  0.09191714  0.87378348     0.88600
C1806       C  0.89409530  0.11425801  0.90139652    -0.51600
C1807       C  0.87551825  0.13799678  0.88931282     0.11500
C1808       C  0.87715892  0.13861233  0.85057882     0.22500
C1809       C  0.88432204  0.07857627  0.84685328    -0.52300
C1810       C  0.86547932  0.10427784  0.83450982     0.11600
C1811       C  0.93398870  0.11560699  0.85381280    -0.51900
C1812       C  0.91468035  0.13944461  0.84130237     0.12200
H1813       H  0.89393936  0.11059583  0.92831461     0.16700
H1814       H  0.86221119  0.15936712  0.84174063     0.02500
H1815       H  0.88019445  0.05227030  0.83806759     0.17000
H1816       H  0.96057934  0.11154967  0.84715066     0.16800
C1817       C  0.73683746  0.42024080  0.73722580     0.32100
C1818       C  0.78335143  0.40913144  0.68434693     0.32100
C1819       C  0.72351468  0.42376227  0.70215130    -0.04100
C1820       C  0.76797379  0.44408483  0.73935984    -0.04800
C1821       C  0.75350790  0.38513116  0.73221632    -0.04700
C1822       C  0.74710036  0.41879443  0.67501718    -0.04100
C1823       C  0.79286919  0.43607593  0.71316759    -0.04800
C1824       C  0.77861355  0.37959895  0.70519731    -0.04700
C1825       C  0.73682474  0.43965849  0.65193556    -0.30100
N1826       N  0.70844757  0.45609523  0.66373331     0.16400
C1827       C  0.70076424  0.44719012  0.69443409    -0.30100
H1828       H  0.67945392  0.45685169  0.71011118     0.18300
C1829       C  0.80742089  0.97178683  0.70789683    -0.29100
N1830       N  0.78825160  0.99529487  0.72475529     0.15100
C1831       C  0.76463858  0.98214350  0.74392660    -0.29100
C1832       C  0.80635659  0.36625164  0.72025619    -0.29400
N1833       N  0.80000242  0.36532151  0.75373742     0.15600
H1834       H  0.83189253  0.36818308  0.71047149     0.18200
C1835       C  0.76722180  0.37273113  0.75999417    -0.29400
H1836       H  0.75762139  0.37961852  0.78577861     0.18200
H1837       H  0.74302572  0.99584227  0.75552269     0.18200
H1838       H  0.74902115  0.44235740  0.62778109     0.18300
H1839       H  0.82396230  0.97611910  0.68691100     0.18200
C1840       C  0.61393186  0.41146068  0.54745110     0.88600
C1841       C  0.62556485  0.44018896  0.57368961    -0.51600
C1842       C  0.64111484  0.43052301  0.60074473     0.11500
C1843       C  0.64379276  0.39268078  0.60109445     0.22500
C1844       C  0.64653873  0.38887998  0.53924739    -0.52300
C1845       C  0.66164565  0.37844203  0.56813456     0.11600
C1846       C  0.59135666  0.38931639  0.56790109    -0.51900
C1847       C  0.60775755  0.37934553  0.59571777     0.12200
H1848       H  0.62317086  0.46658265  0.57095472     0.16700
H1849       H  0.65635867  0.38556449  0.62446135     0.02500
H1850       H  0.64701462  0.37004845  0.00855954     0.17000
H1851       H  0.56655998  0.37987360  0.55936760     0.16800
C1852       C  0.89881120  0.38850634  0.88079415     0.88600
C1853       C  0.87228993  0.36765027  0.89983868    -0.51600
C1854       C  0.85286912  0.34524353  0.87790833     0.11500
C1855       C  0.86160955  0.34601028  0.84070216     0.22500
C1856       C  0.91923695  0.36131577  0.85736162    -0.52300
C1857       C  0.89920098  0.33967407  0.83638701     0.11600
C1858       C  0.87691695  0.40472285  0.85468450    -0.51900
C1859       C  0.85789951  0.38191803  0.83412656     0.12200
H1860       H  0.86923255  0.37064098  0.92745241     0.16700
H1861       H  0.84601291  0.32821350  0.82310903     0.02500
H1862       H  0.94666159  0.36162563  0.85465568     0.17000
H1863       H  0.87813188  0.43101864  0.85128720     0.16800
C1864       C  0.77386220  0.24519303  0.55508814     0.32100
C1865       C  0.72894719  0.29683309  0.57052093     0.32100
C1866       C  0.78780133  0.27965321  0.55256652    -0.04100
C1867       C  0.74172780  0.24414138  0.53246640    -0.04800
C1868       C  0.75857166  0.24822369  0.59154836    -0.04700
C1869       C  0.76480908  0.30613887  0.56022114    -0.04100
C1870       C  0.71834239  0.27055269  0.54167655    -0.04800
C1871       C  0.73363719  0.27439909  0.59922411    -0.04700
C1872       C  0.77438958  0.33036752  0.54053659    -0.30100
N1873       N  0.80202521  0.31989120  0.52201279     0.16400
C1874       C  0.81008291  0.28895855  0.52869452    -0.30100
H1875       H  0.83089022  0.27409314  0.51692334     0.18300
C1876       C  0.70771307  0.26912192  0.00692026    -0.29100
N1877       N  0.72640968  0.25301575  0.98220672     0.15100
C1878       C  0.75118816  0.23499507  0.99482392    -0.29100
C1879       C  0.70605013  0.25844711  0.61222735    -0.29400
N1880       N  0.71293856  0.22558543  0.61205107     0.15600
H1881       H  0.68032828  0.26795852  0.61178855     0.18200
C1882       C  0.74548744  0.22015511  0.60310857    -0.29400
H1883       H  0.75529950  0.19524175  0.59498085     0.18200
H1884       H  0.77275025  0.22438477  0.98017449     0.18200
H1885       H  0.76202910  0.35429066  0.53985375     0.18300
H1886       H  0.69048729  0.28929686  0.00315844     0.18200
C1887       C  0.77465717  0.27387527  0.87478140     0.32100
C1888       C  0.72646272  0.22449766  0.86497130     0.32100
C1889       C  0.78769618  0.23857797  0.87463713    -0.04100
C1890       C  0.74630791  0.27577681  0.90163219    -0.04800
C1891       C  0.75454313  0.27227728  0.84087005    -0.04700
C1892       C  0.76300645  0.21305911  0.86995817    -0.04100
C1893       C  0.72075712  0.25091936  0.89528976    -0.04800
C1894       C  0.72859742  0.24676550  0.83598543    -0.04700
C1895       C  0.77414049  0.18826030  0.88830247    -0.30100
N1896       N  0.80376533  0.19791600  0.90355208     0.16400
C1897       C  0.81216226  0.22824270  0.89561996    -0.30100
H1898       H  0.83423985  0.24239584  0.90539761     0.18300
C1899       C  0.70738786  0.24492442  0.92545864    -0.29100
N1900       N  0.72571065  0.26213082  0.94977897     0.15100
C1901       C  0.74953753  0.28074384  0.93656892    -0.29100
C1902       C  0.70008543  0.26284981  0.82551447    -0.29400
N1903       N  0.70695448  0.29555657  0.82528081     0.15600
H1904       H  0.67449567  0.25356071  0.82807493     0.18200
C1905       C  0.74015461  0.30079628  0.83149891    -0.29400
H1906       H  0.75053670  0.32556322  0.83909873     0.18200
H1907       H  0.77091235  0.29224750  0.95083418     0.18200
H1908       H  0.76098836  0.16520637  0.89127751     0.18300
H1909       H  0.69117211  0.22417029  0.92979220     0.18200
C1910       C  0.59646700  0.42695220  0.51820196     0.44600
N1911       N  0.55208984  0.44827874  0.49577779     0.03500
C1912       C  0.55050906  0.10284500  0.92985775    -0.04400
H1913       H  0.54064925  0.11678967  0.55796962     0.09000
C1914       C  0.90916629  0.06455675  0.52122365    -0.04700
Co1915     Co  0.56928315  0.01253529  0.96894429     0.74200
N1916       N  0.54535203  0.07206515  0.52127157    -0.23900
Co1917     Co  0.50175174  0.07056750  0.97777439     0.74100
C1918       C  0.91671688  0.10024783  0.53291511     0.44700
N1919       N  0.94775598  0.47426760  0.51322141     0.03100
N1920       N  0.96155098  0.07423749  0.50942800     0.03200
N1921       N  0.59498265  0.06844204  0.92921469    -0.44800
H1922       H  0.62755053  0.47421763  0.51104632     0.09000
N1923       N  0.56975537  0.04880232  0.51790535     0.03500
N1924       N  0.96579636  0.06505538  0.94006468     0.03200
C1925       C  0.93633259  0.06915030  0.89267715     0.44800
N1926       N  0.97230111  0.45137464  0.51016821    -0.23400
C1927       C  0.59120986  0.47282769  0.90162849    -0.04300
N1928       N  0.56360523  0.42151363  0.50889916    -0.44500
N1929       N  0.96226873  0.08247779  0.91359598    -0.44700
C1930       C  0.58417989  0.44068180  0.88096414     0.44600
N1931       N  0.56790985  0.05479312  0.94209380     0.03500
N1932       N  0.96882750  0.44096539  0.92774911    -0.23400
N1933       N  0.57483015  0.47227063  0.49643301    -0.23900
N1934       N  0.94212173  0.46095188  0.93196992     0.03100
H1935       H  0.97444785  0.38945128  0.90582357     0.09000
H1936       H  0.90214277  0.02528869  0.90317842     0.09000
N1937       N  0.54152057  0.07495811  0.94352369    -0.23900
N1938       N  0.93806213  0.05058221  0.50663756    -0.23600
N1939       N  0.54675848  0.45052299  0.92375923     0.03500
C1940       C  0.58631291  0.08139100  0.56428155     0.44900
C1941       C  0.96674876  0.43224024  0.53569569    -0.04800
N1942       N  0.94318070  0.04042668  0.93816951    -0.23600
H1943       H  0.88452158  0.05261260  0.51974370     0.09000
N1944       N  0.59414122  0.05395482  0.54180457    -0.44800
H1945       H  0.98079433  0.40972711  0.53870896     0.09000
C1946       C  0.92244310  0.41462289  0.90262356     0.44700
C1947       C  0.60358468  0.46097322  0.50940982    -0.04300
Co1948     Co  0.01038299  0.44655940  0.96183581     0.73800
N1949       N  0.92620944  0.47136423  0.53881530    -0.44500
C1950       C  0.58669312  0.09921662  0.92066313     0.45000
N1951       N  0.55645545  0.42824308  0.89701805    -0.44500
Co1952     Co  0.94189034  0.00717285  0.97528350     0.73900
C1953       C  0.92373610  0.04133774  0.91004274    -0.04800
C1954       C  0.55405068  0.09379051  0.54948791    -0.04400
N1955       N  0.56763764  0.47679284  0.92688786    -0.23900
N1956       N  0.94996457  0.10349740  0.52490051    -0.44700
H1957       H  0.53488302  0.12497586  0.93029317     0.09000
C1958       C  0.95911344  0.41190059  0.90922501    -0.04800
Cl1959     Cl  0.50591197  0.00872928  0.97013433    -0.47800
C1960       C  0.93584582  0.44547044  0.55557469     0.44700
H1961       H  0.61299922  0.48889913  0.90006567     0.09000
N1962       N  0.91418054  0.44617245  0.91742721    -0.44500
C1963       C  0.80191459  0.30101394  0.88148591    -0.11100
C1964       C  0.82492039  0.32213514  0.88503793    -0.12700
C1965       C  0.68640444  0.35068020  0.56959781    -0.11100
C1966       C  0.70504000  0.32683918  0.57383827    -0.12700
C1967       C  0.82349972  0.37713909  0.77893870    -0.11100
C1968       C  0.84044379  0.38674064  0.80353409    -0.12700
C1969       C  0.65970844  0.45380647  0.62319701    -0.11100
C1970       C  0.68240846  0.46197800  0.64206864    -0.12700
C1971       C  0.85150780  0.15756598  0.90969518    -0.11100
C1972       C  0.82797102  0.17607288  0.91294648    -0.12700
C1973       C  0.84835752  0.36228166  0.52112837    -0.11100
C1974       C  0.82656416  0.34220520  0.51426676    -0.12700
C1975       C  0.82998120  0.41250482  0.63153465    -0.11100
C1976       C  0.80898092  0.40797469  0.65432034    -0.12700
C1977       C  0.90814775  0.30350438  0.77688229    -0.11100
C1978       C  0.90947707  0.31996880  0.80480764    -0.12700
C1979       C  0.92069787  0.17391834  0.79026820    -0.11100
C1980       C  0.92426598  0.15711860  0.81324719    -0.12700
C1981       C  0.90355105  0.35222878  0.62484484    -0.11100
C1982       C  0.89479508  0.33571561  0.64680725    -0.12700
C1983       C  0.70032338  0.19647635  0.86464483    -0.11100
C1984       C  0.67974355  0.17472800  0.87057961    -0.12700
C1985       C  0.79987653  0.21714114  0.54670122    -0.11100
C1986       C  0.82259820  0.19572370  0.54415818    -0.12700
C1987       C  0.90634654  0.21102368  0.65647518    -0.11100
C1988       C  0.90707930  0.19607820  0.62780161    -0.12700
C1989       C  0.81699777  0.10832687  0.78517494    -0.11100
C1990       C  0.83866734  0.10326829  0.80707654    -0.12700
C1991       C  0.68640264  0.06618009  0.80833566    -0.11100
C1992       C  0.66148781  0.07324757  0.82449633    -0.12700
C1993       C  0.82420759  0.14458602  0.65844209    -0.11100
C1994       C  0.83828130  0.13626065  0.63176455    -0.12700
C1995       C  0.66638480  0.34466688  0.84604605    -0.11100
C1996       C  0.68372056  0.32070723  0.83677096    -0.12700
C1997       C  0.70933770  0.42626370  0.76576487    -0.11100
C1998       C  0.68525355  0.42821915  0.78675395    -0.12700
C1999       C  0.59722760  0.19507431  0.80666299    -0.11100
C2000       C  0.59236050  0.17294532  0.82419476    -0.12700
C2001       C  0.60370930  0.33016785  0.63177663    -0.11100
C2002       C  0.59873048  0.35133407  0.61322767    -0.12700
C2003       C  0.59631146  0.35094273  0.78020392    -0.11100
C2004       C  0.59740104  0.32334944  0.76422565    -0.12700
C2005       C  0.67232706  0.17549677  0.59441168    -0.11100
C2006       C  0.68931521  0.20010364  0.60245467    -0.12700
C2007       C  0.68661232  0.09397445  0.65949318    -0.11100
C2008       C  0.71031307  0.09621044  0.68079808    -0.12700
C2009       C  0.60308113  0.17557949  0.65948098    -0.11100
C2010       C  0.60383126  0.20369083  0.67421849    -0.12700
C2011       C  0.60647149  0.59640496  0.09179041     0.88600
C2012       C  0.63150864  0.57608655  0.11344252    -0.51600
C2013       C  0.65277293  0.59614771  0.13604488     0.11500
C2014       C  0.64651961  0.63305417  0.13484846     0.22500
C2015       C  0.58779233  0.62085861  0.11924510    -0.49400
C2016       C  0.60909540  0.64020039  0.14103417     0.11600
C2017       C  0.63066221  0.61977703  0.07485133    -0.51900
C2018       C  0.65114517  0.63863540  0.09789469     0.12200
H2019       H  0.63275888  0.54897385  0.11029962     0.16700
H2020       H  0.66313498  0.64932323  0.15288041     0.02500
H2021       H  0.56065136  0.62553632  0.11857828     0.17000
H2022       H  0.62982954  0.62284928  0.04785464     0.16800
C2023       C  0.60145269  0.73363757  0.19498784     0.32100
C2024       C  0.59814838  0.79048669  0.23848054     0.32100
C2025       C  0.61826031  0.76366554  0.18150791    -0.04100
C2026       C  0.56588384  0.74609576  0.20382135    -0.04800
C2027       C  0.61740350  0.73147182  0.23024190    -0.04700
C2028       C  0.61721128  0.79339374  0.20498296    -0.04100
C2029       C  0.56413178  0.77609554  0.22623014    -0.04800
C2030       C  0.61487748  0.76110615  0.25374395    -0.04700
C2031       C  0.61304361  0.81942520  0.18579861    -0.30100
N2032       N  0.61029065  0.80728653  0.15254288     0.16400
C2033       C  0.61321272  0.77366033  0.14933298    -0.30100
H2034       H  0.60696738  0.75725022  0.12621704     0.18300
C2035       C  0.53575336  0.77418310  0.24567435    -0.29100
N2036       N  0.02087720  0.75205341  0.22359369     0.15100
C2037       C  0.53861475  0.72724031  0.21085855    -0.29100
C2038       C  0.60703077  0.75041349  0.28517512    -0.29400
N2039       N  0.60590067  0.71661737  0.28157951     0.15600
H2040       H  0.59780675  0.76626187  0.30755274     0.18200
C2041       C  0.61250944  0.70500558  0.24876668    -0.29400
H2042       H  0.60821353  0.67929502  0.23782398     0.18200
H2043       H  0.03330419  0.70599102  0.19112653     0.18200
H2044       H  0.60657348  0.84489298  0.19599033     0.18300
H2045       H  0.02966029  0.79940403  0.25562515     0.18200
C2046       C  0.60639159  0.92100772  0.35155872     0.88600
C2047       C  0.63325479  0.94024952  0.33058347    -0.51600
C2048       C  0.65247802  0.91949456  0.30646782     0.11500
C2049       C  0.64275162  0.88313704  0.30570756     0.22500
C2050       C  0.58534299  0.89967074  0.32325227    -0.52300
C2051       C  0.60484224  0.87982732  0.29979319     0.11600
C2052       C  0.62854511  0.89456929  0.36633083    -0.51900
C2053       C  0.64711269  0.87526510  0.34193677     0.12200
H2054       H  0.63721635  0.96707787  0.33533481     0.16700
H2055       H  0.65782895  0.86629306  0.28667779     0.02500
H2056       H  0.55785585  0.89769112  0.32407304     0.17000
H2057       H  0.62851605  0.89069423  0.39312845     0.16800
C2058       C  0.73499839  0.59339019  0.20543998     0.32100
C2059       C  0.78529767  0.60166310  0.25496429     0.32100
C2060       C  0.72433925  0.58938949  0.24119428    -0.04100
C2061       C  0.76511985  0.56881482  0.20025308    -0.04800
C2062       C  0.75263833  0.62791886  0.21004937    -0.04700
C2063       C  0.74945368  0.59348048  0.26656385    -0.04100
C2064       C  0.79167986  0.57460874  0.22510633    -0.04800
C2065       C  0.78006272  0.63181771  0.23477580    -0.04700
C2066       C  0.73807718  0.57667321  0.29259328    -0.30100
N2067       N  0.70759520  0.56284255  0.28346569     0.16400
C2068       C  0.69994093  0.56924704  0.25173793    -0.30100
H2069       H  0.67684017  0.56148192  0.23800123     0.18300
C2070       C  0.80681414  0.54525435  0.22859328    -0.29100
N2071       N  0.78791352  0.01950750  0.21310587     0.15100
C2072       C  0.76321463  0.53455359  0.19373971    -0.29100
C2073       C  0.80665906  0.64454206  0.21731414    -0.29400
N2074       N  0.79701069  0.64747191  0.18494360     0.15600
H2075       H  0.83298333  0.64143257  0.22424464     0.18200
C2076       C  0.76372094  0.64115386  0.18172526    -0.29400
H2077       H  0.75151915  0.63569160  0.15691398     0.18200
H2078       H  0.74039107  0.01592313  0.18609398     0.18200
H2079       H  0.75058065  0.57543258  0.31690009     0.18300
H2080       H  0.82428575  0.04136677  0.24860138     0.18200
C2081       C  0.89448734  0.62413442  0.05688564     0.88600
C2082       C  0.87127823  0.64636737  0.03607834    -0.51600
C2083       C  0.85132088  0.66932006  0.05655829     0.11500
C2084       C  0.85658414  0.66801426  0.09441400     0.22500
C2085       C  0.91451364  0.64980246  0.08244960    -0.52300
C2086       C  0.89407004  0.67227510  0.10224897     0.11600
C2087       C  0.86933858  0.60876940  0.08073269    -0.51900
C2088       C  0.85002576  0.63223786  0.10005791     0.12200
H2089       H  0.87012803  0.64338297  0.00831006     0.16700
H2090       H  0.84047649  0.68638628  0.11080724     0.02500
H2091       H  0.94153414  0.64765517  0.08725217     0.17000
H2092       H  0.86918421  0.58250993  0.08437814     0.16800
C2093       C  0.60275272  0.61532061  0.39037698     0.88600
C2094       C  0.58063754  0.63623510  0.36826723    -0.51600
C2095       C  0.59807517  0.64621166  0.34108013     0.11500
C2096       C  0.63471385  0.63381702  0.33775961     0.22500
C2097       C  0.61641651  0.58656903  0.36542197    -0.52300
C2098       C  0.63339264  0.59605965  0.33909164     0.11600
C2099       C  0.63446750  0.63890594  0.39972845    -0.51900
C2100       C  0.65072857  0.64904350  0.37127712     0.12200
H2101       H  0.55533954  0.64526637  0.37545908     0.16700
H2102       H  0.64805562  0.64076316  0.31474166     0.02500
H2103       H  0.61561308  0.56038077  0.36951138     0.17000
H2104       H  0.64172101  0.64801292  0.42584287     0.16800
C2105       C  0.90018652  0.77772614  0.25073543     0.32100
C2106       C  0.89916057  0.73039753  0.19565907     0.32100
C2107       C  0.88641315  0.78993715  0.21811695    -0.04100
C2108       C  0.93395683  0.76276950  0.23940539    -0.04800
C2109       C  0.87888241  0.74675292  0.25546360    -0.04700
C2110       C  0.88521810  0.76477180  0.18945699    -0.04100
C2111       C  0.93360623  0.73888264  0.21096728    -0.04800
C2112       C  0.87937874  0.72093804  0.22698571    -0.04700
C2113       C  0.89202416  0.78042109  0.16105010    -0.30100
N2114       N  0.89796497  0.81303356  0.17087389     0.16400
C2115       C  0.89508147  0.81930096  0.20524768    -0.30100
H2116       H  0.90314146  0.84234203  0.22026944     0.18300
C2117       C  0.46627798  0.72111001  0.21852797    -0.29100
N2118       N  0.48643969  0.73803396  0.24269729     0.15100
C2119       C  0.46716081  0.75947679  0.26390906    -0.29100
C2120       C  0.88374459  0.69147505  0.24154665    -0.29400
N2121       N  0.88431180  0.69836970  0.27607085     0.15600
H2122       H  0.89212551  0.66790643  0.22780183     0.18200
C2123       C  0.88043710  0.73138078  0.28467746    -0.29400
H2124       H  0.88574598  0.74405258  0.31008467     0.18200
H2125       H  0.47651247  0.77829618  0.28372317     0.18200
H2126       H  0.89734637  0.76792722  0.13558740     0.18300
H2127       H  0.47489173  0.70504282  0.19606374     0.18200
C2128       C  0.91039966  0.92302780  0.07145485     0.88600
C2129       C  0.89115841  0.90329029  0.04202685    -0.51600
C2130       C  0.87060490  0.87978797  0.05182823     0.11500
C2131       C  0.87038510  0.87678946  0.09017901     0.22500
C2132       C  0.88123884  0.93639281  0.09820397    -0.52300
C2133       C  0.86037455  0.91093333  0.10831114     0.11600
C2134       C  0.92866218  0.89674916  0.09030966    -0.51900
C2135       C  0.90735806  0.87306888  0.10026113     0.12200
H2136       H  0.89328083  0.90781534  0.01544076     0.16700
H2137       H  0.85383116  0.85625820  0.09707926     0.02500
H2138       H  0.87873293  0.96243998  0.10891612     0.17000
H2139       H  0.95513620  0.89877141  0.09805987     0.16800
C2140       C  0.90524329  0.59145309  0.37746776     0.88600
C2141       C  0.88275476  0.60827463  0.40608100    -0.51600
C2142       C  0.86033944  0.62979922  0.39560911     0.11500
C2143       C  0.86150546  0.63382490  0.35749273     0.22500
C2144       C  0.87907592  0.57592770  0.34848085    -0.52300
C2145       C  0.85622099  0.59940842  0.33766923     0.11600
C2146       C  0.92150562  0.62027856  0.36058022    -0.51900
C2147       C  0.89816087  0.64184539  0.34973365     0.12200
H2148       H  0.88486851  0.60406106  0.43275657     0.16700
H2149       H  0.84325031  0.65282422  0.35017211     0.02500
H2150       H  0.88025925  0.55015536  0.33658120     0.17000
H2151       H  0.94825423  0.62090761  0.35394521     0.16800
C2152       C  0.73527788  0.91791182  0.23670372     0.32100
C2153       C  0.78494762  0.90773037  0.18682599     0.32100
C2154       C  0.72381500  0.92026439  0.20070725    -0.04100
C2155       C  0.76533825  0.94275775  0.24030756    -0.04800
C2156       C  0.75307711  0.88343838  0.23332643    -0.04700
C2157       C  0.74901919  0.91565517  0.17507133    -0.04100
C2158       C  0.79183268  0.93562255  0.21563911    -0.04800
C2159       C  0.77978536  0.87836894  0.20789932    -0.04700
C2160       C  0.73930463  0.93522868  0.15063658    -0.30100
N2161       N  0.70981321  0.95068304  0.16034077     0.16400
C2162       C  0.70070573  0.94233415  0.19090521    -0.30100
H2163       H  0.67821510  0.95143087  0.20501750     0.18300
C2164       C  0.80838070  0.46623215  0.20648227    -0.29100
N2165       N  0.78804489  0.48995427  0.22100540     0.15100
C2166       C  0.76389833  0.47749726  0.24012091    -0.29100
C2167       C  0.80675070  0.86564183  0.22467362    -0.29400
N2168       N  0.79838388  0.86463556  0.25770303     0.15600
H2169       H  0.83286334  0.86754005  0.21636679     0.18200
C2170       C  0.76526909  0.87159397  0.26202374    -0.29400
H2171       H  0.75412996  0.87845430  0.28716476     0.18200
H2172       H  0.74171003  0.49129147  0.25018989     0.18200
H2173       H  0.75268743  0.93777990  0.12707431     0.18300
H2174       H  0.82593443  0.46982732  0.18608326     0.18200
C2175       C  0.61442633  0.90671087  0.04267789     0.88600
C2176       C  0.62821642  0.93483627  0.06838843    -0.51600
C2177       C  0.64310986  0.92455663  0.09542526     0.11500
C2178       C  0.64314619  0.88680872  0.09643387     0.22500
C2179       C  0.64556095  0.88187570  0.03448048    -0.52300
C2180       C  0.66004762  0.87101351  0.06361406     0.11600
C2181       C  0.59059074  0.88634685  0.06371508    -0.51900
C2182       C  0.60634561  0.87571792  0.09148347     0.12200
H2183       H  0.62763846  0.96127875  0.06552294     0.16700
H2184       H  0.65515399  0.87933335  0.11992748     0.02500
H2185       H  0.65264126  0.87434728  0.51218231     0.17000
H2186       H  0.56533313  0.87810927  0.05540344     0.16800
C2187       C  0.89644745  0.88859025  0.38479974     0.88600
C2188       C  0.87092092  0.86717071  0.40448872    -0.51600
C2189       C  0.85132201  0.84454826  0.38291134     0.11500
C2190       C  0.85884974  0.84579764  0.34559450     0.22500
C2191       C  0.91665885  0.86177636  0.36071845    -0.52300
C2192       C  0.89636715  0.83996130  0.34031823     0.11600
C2193       C  0.87349694  0.90465210  0.35952869    -0.51900
C2194       C  0.85426904  0.88172605  0.33948071     0.12200
H2195       H  0.86870833  0.86986280  0.43217717     0.16700
H2196       H  0.84307318  0.82791673  0.32826482     0.02500
H2197       H  0.94400991  0.86222776  0.35740660     0.17000
H2198       H  0.87427402  0.93096088  0.35611163     0.16800
C2199       C  0.77409657  0.73988345  0.05721478     0.32100
C2200       C  0.72675897  0.78964530  0.07078905     0.32100
C2201       C  0.78702185  0.77491618  0.05644210    -0.04100
C2202       C  0.74355283  0.73813095  0.03268891    -0.04800
C2203       C  0.75668660  0.74153597  0.09260966    -0.04700
C2204       C  0.76287073  0.80041202  0.06312436    -0.04100
C2205       C  0.71863107  0.76322780  0.04113870    -0.04800
C2206       C  0.73070932  0.76693002  0.09939859    -0.04700
C2207       C  0.77351930  0.82611378  0.04591726    -0.30100
N2208       N  0.80270266  0.81703584  0.02943048     0.16400
C2209       C  0.81096043  0.78590011  0.03524277    -0.30100
H2210       H  0.83290130  0.77205723  0.02457812     0.18300
C2211       C  0.70862277  0.77039744  0.51067675    -0.29100
N2212       N  0.72588232  0.75178325  0.48630871     0.15100
C2213       C  0.75013011  0.73372670  0.49978160    -0.29100
C2214       C  0.70309965  0.75003032  0.11095047    -0.29400
N2215       N  0.71082102  0.71734913  0.11058449     0.15600
H2216       H  0.67718210  0.75884758  0.10966851     0.18200
C2217       C  0.74374102  0.71277734  0.10279554    -0.29400
H2218       H  0.75436175  0.68820387  0.09460600     0.18200
H2219       H  0.77106960  0.72147142  0.48538978     0.18200
H2220       H  0.76073356  0.84981513  0.04520689     0.18300
H2221       H  0.69254802  0.79119966  0.50612272     0.18200
C2222       C  0.77411685  0.77239381  0.37861391     0.32100
C2223       C  0.72438578  0.72489033  0.36707198     0.32100
C2224       C  0.78608026  0.73638460  0.37755735    -0.04100
C2225       C  0.74569246  0.77447588  0.40534466    -0.04800
C2226       C  0.75428107  0.77246862  0.34477259    -0.04700
C2227       C  0.76026869  0.71184670  0.37163260    -0.04100
C2228       C  0.71953462  0.75026003  0.39852133    -0.04800
C2229       C  0.72767357  0.74787435  0.33893863    -0.04700
C2230       C  0.76873371  0.68675803  0.39062003    -0.30100
N2231       N  0.79743976  0.69512409  0.40793812     0.16400
C2232       C  0.80854802  0.72471006  0.40002024    -0.30100
H2233       H  0.83052349  0.73789121  0.41145919     0.18300
C2234       C  0.70729473  0.74288291  0.42885843    -0.29100
N2235       N  0.72595656  0.75962349  0.45331131     0.15100
C2236       C  0.74941283  0.77867159  0.44024094    -0.29100
C2237       C  0.70000806  0.76482790  0.32805958    -0.29400
N2238       N  0.70801765  0.79730818  0.32818244     0.15600
H2239       H  0.67404420  0.75617865  0.32961140     0.18200
C2240       C  0.74107686  0.80165387  0.33572260    -0.29400
H2241       H  0.75199166  0.82607436  0.34389064     0.18200
H2242       H  0.77077903  0.79020552  0.45449772     0.18200
H2243       H  0.75379369  0.66466824  0.39328195     0.18300
H2244       H  0.69096827  0.72210330  0.43284911     0.18200
C2245       C  0.59703324  0.92316043  0.01384280     0.44600
N2246       N  0.55199097  0.94664031  0.99454946     0.03500
C2247       C  0.54857172  0.60285455  0.42836621    -0.04400
H2248       H  0.53531680  0.61282068  0.05956388     0.09000
C2249       C  0.91012679  0.56139686  0.02337541    -0.04700
Co2250     Co  0.56897211  0.51334689  0.46847266     0.74200
N2251       N  0.54133982  0.56978496  0.02101748    -0.23900
Co2252     Co  0.50063599  0.57128016  0.47681508     0.74100
C2253       C  0.91751173  0.59685276  0.03633920     0.44700
N2254       N  0.94635107  0.97385469  0.01193132     0.03100
N2255       N  0.96169254  0.57248137  0.01000454     0.03200
N2256       N  0.59346524  0.56886061  0.42756217    -0.44800
H2257       H  0.62841757  0.97033345  0.00700626     0.09000
N2258       N  0.56593155  0.54683091  0.01702954     0.03500
N2259       N  0.96393727  0.56586240  0.44028783     0.03200
C2260       C  0.93166275  0.57010484  0.39457775     0.44800
N2261       N  0.97090674  0.95097659  0.00872634    -0.23400
C2262       C  0.59252407  0.97281383  0.40182265    -0.04300
N2263       N  0.56373732  0.91889444  0.00562871    -0.44500
N2264       N  0.95769707  0.58430598  0.41497562    -0.44700
C2265       C  0.58358912  0.94136197  0.38045903     0.44600
N2266       N  0.56668516  0.55501634  0.44073211     0.03500
N2267       N  0.96739813  0.94224729  0.42788112    -0.23400
N2268       N  0.57500715  0.97038729  0.99550974    -0.23900
N2269       N  0.94066738  0.96214764  0.43269244     0.03100
H2270       H  0.97261149  0.89032636  0.40750680     0.09000
H2271       H  0.90046723  0.52436003  0.40531747     0.09000
N2272       N  0.54010881  0.57503346  0.44228348    -0.23900
N2273       N  0.93862042  0.54846563  0.00715537    -0.23600
N2274       N  0.54884808  0.95107203  0.42555261     0.03500
C2275       C  0.58107388  0.57728528  0.06497744     0.44900
C2276       C  0.96621966  0.93240929  0.03475906    -0.04800
N2277       N  0.94256829  0.54016649  0.43854995    -0.23600
H2278       H  0.88572955  0.54899220  0.02245910     0.09000
N2279       N  0.58966922  0.55094011  0.04153063    -0.44800
H2280       H  0.98083200  0.91032652  0.03812673     0.09000
C2281       C  0.92031656  0.91500770  0.40570549     0.44700
C2282       C  0.60411046  0.95774369  0.00639475    -0.04300
Co2283     Co  0.00924115  0.94776538  0.46130441     0.73800
N2284       N  0.92527879  0.97125727  0.03800964    -0.44500
C2285       C  0.58459341  0.59947650  0.41899271     0.45000
N2286       N  0.55659443  0.92922221  0.39778399    -0.44500
Co2287     Co  0.94251230  0.50709949  0.47612475     0.73900
C2288       C  0.92192629  0.54082961  0.41126372    -0.04800
C2289       C  0.54915125  0.59029510  0.05026597    -0.04400
N2290       N  0.57026630  0.97685796  0.42833570    -0.23900
N2291       N  0.95018427  0.60117491  0.02689025    -0.44700
H2292       H  0.53271627  0.62483218  0.42885617     0.09000
C2293       C  0.95725391  0.91276026  0.41060457    -0.04800
Cl2294     Cl  0.50562115  0.50930977  0.46972342    -0.47800
C2295       C  0.93580626  0.94590758  0.05511454     0.44700
H2296       H  0.61424592  0.98871322  0.39918788     0.09000
N2297       N  0.91230807  0.94685376  0.41977845    -0.44500
C2298       C  0.80175561  0.79901094  0.38618144    -0.11100
C2299       C  0.82432042  0.82055761  0.39025806    -0.12700
C2300       C  0.68378544  0.84255095  0.06616646    -0.11100
C2301       C  0.70197327  0.81893443  0.07228133    -0.12700
C2302       C  0.82033855  0.87672789  0.28414615    -0.11100
C2303       C  0.83649058  0.88650489  0.30917368    -0.12700
C2304       C  0.66271598  0.94699890  0.11768096    -0.11100
C2305       C  0.68489153  0.95541073  0.13707758    -0.12700
C2306       C  0.83846525  0.64993176  0.41812026    -0.11100
C2307       C  0.81813859  0.67181808  0.42039543    -0.12700
C2308       C  0.84903756  0.85991136  0.02879561    -0.11100
C2309       C  0.82697534  0.84000218  0.02270639    -0.12700
C2310       C  0.83378840  0.91172635  0.13611873    -0.11100
C2311       C  0.81215463  0.90704050  0.15827528    -0.12700
C2312       C  0.90380914  0.80235286  0.28169186    -0.11100
C2313       C  0.90604534  0.81965584  0.30902357    -0.12700
C2314       C  0.89646021  0.67761977  0.29937346    -0.11100
C2315       C  0.90347071  0.66165297  0.32230565    -0.12700
C2316       C  0.91466614  0.85267812  0.12669873    -0.11100
C2317       C  0.90944567  0.83505112  0.14861558    -0.12700
C2318       C  0.69746018  0.69758629  0.36532261    -0.11100
C2319       C  0.67685444  0.67553585  0.37010819    -0.12700
C2320       C  0.80117282  0.71297145  0.04942982    -0.11100
C2321       C  0.82435811  0.69218345  0.04709058    -0.12700
C2322       C  0.90119361  0.70614846  0.16390806    -0.11100
C2323       C  0.90264413  0.69023874  0.13555167    -0.12700
C2324       C  0.81223062  0.60144872  0.28368756    -0.11100
C2325       C  0.83252560  0.59723182  0.30721592    -0.12700
C2326       C  0.68118561  0.56287752  0.30625942    -0.11100
C2327       C  0.65706124  0.57364821  0.32188228    -0.12700
C2328       C  0.81764085  0.63681690  0.15687897    -0.11100
C2329       C  0.83246298  0.62797324  0.13071480    -0.12700
C2330       C  0.66689746  0.84657704  0.34625764    -0.11100
C2331       C  0.68497203  0.82296191  0.33821277    -0.12700
C2332       C  0.70660698  0.92410471  0.26380808    -0.11100
C2333       C  0.68218824  0.92676384  0.28427781    -0.12700
C2334       C  0.59438690  0.69599712  0.30542826    -0.11100
C2335       C  0.58933109  0.67424716  0.32332376    -0.12700
C2336       C  0.60003558  0.82692750  0.12743209    -0.11100
C2337       C  0.59584915  0.84808287  0.10876286    -0.12700
C2338       C  0.59382612  0.84983848  0.27843196    -0.11100
C2339       C  0.59470463  0.82267464  0.26120023    -0.12700
C2340       C  0.67055712  0.66730017  0.09227945    -0.11100
C2341       C  0.68789601  0.69155144  0.10026224    -0.12700
C2342       C  0.68146952  0.58723610  0.15855536    -0.11100
C2343       C  0.70592003  0.58844537  0.17884025    -0.12700
C2344       C  0.60059164  0.67297821  0.15816797    -0.11100
C2345       C  0.60117218  0.70134485  0.17251015    -0.12700
C2346       C  0.60600645  0.59669061  0.58971310     0.88600
C2347       C  0.63058716  0.57430593  0.60957921    -0.51600
C2348       C  0.65252666  0.59238618  0.63300592     0.11500
C2349       C  0.64742334  0.62984229  0.63431029     0.22500
C2350       C  0.58816987  0.62025409  0.61874166    -0.49400
C2351       C  0.61023232  0.63779701  0.64148008     0.11600
C2352       C  0.63067678  0.62069066  0.57427873    -0.51900
C2353       C  0.65179975  0.63780974  0.59803190     0.12200
H2354       H  0.63097684  0.54718901  0.60477787     0.16700
H2355       H  0.66473197  0.64455675  0.65293439     0.02500
H2356       H  0.56118091  0.62577561  0.61855222     0.17000
H2357       H  0.62937548  0.62581638  0.54788816     0.16800
C2358       C  0.60682809  0.73077194  0.69860814     0.32100
C2359       C  0.60615732  0.78890172  0.74088889     0.32100
C2360       C  0.62551903  0.75978026  0.68439565    -0.04100
C2361       C  0.57240003  0.74595204  0.70656682    -0.04800
C2362       C  0.62143761  0.72874544  0.73460730    -0.04700
C2363       C  0.62610846  0.79008310  0.70747119    -0.04100
C2364       C  0.57204195  0.77592982  0.72800136    -0.04800
C2365       C  0.62051326  0.75920449  0.75718644    -0.04700
C2366       C  0.62264565  0.81592653  0.68782680    -0.30100
N2367       N  0.61799523  0.80353093  0.65487080     0.16400
C2368       C  0.61969576  0.76978460  0.65219045    -0.30100
H2369       H  0.61153293  0.75339697  0.62973594     0.18300
C2370       C  0.53927969  0.78519900  0.73352615    -0.29100
N2371       N  0.01876849  0.74995717  0.73779549     0.15100
C2372       C  0.53989479  0.73696707  0.69916556    -0.29100
C2373       C  0.61095130  0.75053143  0.78897701    -0.29400
N2374       N  0.60674634  0.71709620  0.78663600     0.15600
H2375       H  0.60266518  0.76787797  0.81068313     0.18200
C2376       C  0.61336374  0.70371841  0.75425107    -0.29400
H2377       H  0.60724092  0.67813506  0.74421375     0.18200
H2378       H  0.03166787  0.70674136  0.70144260     0.18200
H2379       H  0.61709953  0.84165416  0.69789495     0.18300
H2380       H  0.02767137  0.79601195  0.77190497     0.18200
C2381       C  0.61108433  0.92195937  0.85077971     0.88600
C2382       C  0.63730195  0.94167494  0.82960740    -0.51600
C2383       C  0.65799888  0.92110763  0.80678092     0.11500
C2384       C  0.65019959  0.88447855  0.80734910     0.22500
C2385       C  0.59175593  0.89874246  0.82280420    -0.52300
C2386       C  0.61259908  0.87917666  0.80065004     0.11600
C2387       C  0.63422073  0.89741365  0.86739684    -0.51900
C2388       C  0.65427097  0.87823459  0.84415836     0.12200
H2389       H  0.63958717  0.96872240  0.83310973     0.16700
H2390       H  0.66635207  0.86777093  0.78922107     0.02500
H2391       H  0.56436120  0.89560705  0.82282227     0.17000
H2392       H  0.63348147  0.89435057  0.89439849     0.16800
C2393       C  0.73290501  0.58550445  0.70265519     0.32100
C2394       C  0.78027230  0.59680214  0.75470664     0.32100
C2395       C  0.72208681  0.57747118  0.73702564    -0.04100
C2396       C  0.76606840  0.56465467  0.69762176    -0.04800
C2397       C  0.74596115  0.62186383  0.71033359    -0.04700
C2398       C  0.74552204  0.58295560  0.76350769    -0.04100
C2399       C  0.79130333  0.57267570  0.72376947    -0.04800
C2400       C  0.77183219  0.62760522  0.73649128    -0.04700
C2401       C  0.73043659  0.57212916  0.79143828    -0.30100
N2402       N  0.69915703  0.56025832  0.78187042     0.16400
C2403       C  0.69417378  0.56279810  0.74853467    -0.30100
H2404       H  0.67055364  0.55763123  0.73473527     0.18300
C2405       C  0.80943523  0.54500323  0.72757398    -0.29100
N2406       N  0.78837548  0.02739392  0.71630750     0.15100
C2407       C  0.76764102  0.53025132  0.69169010    -0.29100
C2408       C  0.79719816  0.64462359  0.72137318    -0.29400
N2409       N  0.78858704  0.64786716  0.68875324     0.15600
H2410       H  0.82342353  0.64437968  0.72967824     0.18200
C2411       C  0.75631171  0.63806471  0.68359197    -0.29400
H2412       H  0.74565416  0.63249562  0.65807110     0.18200
H2413       H  0.74213125  0.02755880  0.68723155     0.18200
H2414       H  0.74008762  0.57548095  0.81740738     0.18300
H2415       H  0.82474549  0.04577024  0.75375673     0.18200
C2416       C  0.89432824  0.62508953  0.56496498     0.88600
C2417       C  0.87228695  0.64801006  0.54392528    -0.51600
C2418       C  0.85290433  0.67158798  0.56417992     0.11500
C2419       C  0.85769825  0.67038686  0.60209158     0.22500
C2420       C  0.91497411  0.64994770  0.59051909    -0.52300
C2421       C  0.89524585  0.67315264  0.60993081     0.11600
C2422       C  0.86809056  0.61065345  0.58866720    -0.51900
C2423       C  0.84944311  0.63501517  0.60784048     0.12200
H2424       H  0.87125179  0.64489014  0.51615356     0.16700
H2425       H  0.84225830  0.68950336  0.61830877     0.02500
H2426       H  0.94187566  0.64697082  0.59544453     0.17000
H2427       H  0.86620383  0.58432411  0.59173075     0.16800
C2428       C  0.60294945  0.61731558  0.89612199     0.88600
C2429       C  0.58021057  0.64028534  0.87655412    -0.51600
C2430       C  0.59635172  0.65091360  0.84888476     0.11500
C2431       C  0.63223593  0.63750754  0.84273033     0.22500
C2432       C  0.61428209  0.58931377  0.86908220    -0.52300
C2433       C  0.62952682  0.59969437  0.84216134     0.11600
C2434       C  0.63588051  0.63961477  0.90441747    -0.51900
C2435       C  0.65065894  0.65071753  0.87557360     0.12200
H2436       H  0.55540199  0.64948583  0.88531104     0.16700
H2437       H  0.64451585  0.64509571  0.81942233     0.02500
H2438       H  0.61254215  0.56280566  0.87167536     0.17000
H2439       H  0.64486378  0.64740544  0.93025624     0.16800
C2440       C  0.89833434  0.78144924  0.75480265     0.32100
C2441       C  0.89938134  0.73291863  0.70107908     0.32100
C2442       C  0.88928419  0.79338102  0.72032871    -0.04100
C2443       C  0.93180246  0.76385422  0.74768048    -0.04800
C2444       C  0.87410375  0.75199503  0.75825001    -0.04700
C2445       C  0.88930797  0.76765051  0.69249917    -0.04100
C2446       C  0.93246356  0.73920272  0.72006299    -0.04800
C2447       C  0.87522004  0.72574205  0.73014841    -0.04700
C2448       C  0.89832970  0.78198759  0.66378484    -0.30100
N2449       N  0.90390834  0.81487817  0.67266540     0.16400
C2450       C  0.89932816  0.82215868  0.70691848    -0.30100
H2451       H  0.90592923  0.84583733  0.72159567     0.18300
C2452       C  0.46547251  0.73926642  0.69566799    -0.29100
N2453       N  0.48503526  0.75953996  0.71748391     0.15100
C2454       C  0.46583641  0.77743500  0.74163144    -0.29100
C2455       C  0.87580642  0.69628505  0.74507294    -0.29400
N2456       N  0.87475700  0.70339873  0.77950446     0.15600
H2457       H  0.88389097  0.67228172  0.73204017     0.18200
C2458       C  0.87246121  0.73668465  0.78765574    -0.29400
H2459       H  0.87737568  0.74922086  0.81320173     0.18200
H2460       H  0.47481162  0.79558398  0.76226505     0.18200
H2461       H  0.90414601  0.76863554  0.63881451     0.18300
H2462       H  0.47413658  0.72265689  0.67359950     0.18200
C2463       C  0.91384317  0.92370744  0.56927431     0.88600
C2464       C  0.89423232  0.90291628  0.54087476    -0.51600
C2465       C  0.87368483  0.88013992  0.55202651     0.11500
C2466       C  0.87382066  0.87881001  0.59072017     0.22500
C2467       C  0.88511940  0.93830418  0.59581675    -0.52300
C2468       C  0.86429027  0.91365272  0.60737784     0.11600
C2469       C  0.93224848  0.89810796  0.58923399    -0.51900
C2470       C  0.91083948  0.87510888  0.60069964     0.12200
H2471       H  0.89594762  0.90635125  0.51395172     0.16700
H2472       H  0.85708597  0.85894911  0.59878739     0.02500
H2473       H  0.88279227  0.96467595  0.60532268     0.17000
H2474       H  0.95895469  0.89992055  0.59611101     0.16800
C2475       C  0.90269659  0.59095490  0.87482412     0.88600
C2476       C  0.88058474  0.60621576  0.90461351    -0.51600
C2477       C  0.85651263  0.62698926  0.89556313     0.11500
C2478       C  0.85580207  0.63180290  0.85766816     0.22500
C2479       C  0.87617058  0.57489382  0.84654151    -0.52300
C2480       C  0.85164225  0.59752204  0.83726592     0.11600
C2481       C  0.91664363  0.62108505  0.85822761    -0.51900
C2482       C  0.89159695  0.64190112  0.84902450     0.12200
H2483       H  0.88442097  0.60185073  0.93104900     0.16700
H2484       H  0.83620020  0.65004314  0.85142768     0.02500
H2485       H  0.87823274  0.54942668  0.83392293     0.17000
H2486       H  0.94313360  0.62364589  0.85132802     0.16800
C2487       C  0.73991462  0.92156396  0.73651597     0.32100
C2488       C  0.78940657  0.91297632  0.68644534     0.32100
C2489       C  0.72787512  0.92261986  0.70050428    -0.04100
C2490       C  0.76853715  0.94790981  0.73944562    -0.04800
C2491       C  0.75933270  0.88808206  0.73359611    -0.04700
C2492       C  0.75291452  0.91859367  0.67454625    -0.04100
C2493       C  0.79474102  0.94206906  0.71423929    -0.04800
C2494       C  0.78630445  0.88415241  0.70854066    -0.04700
C2495       C  0.74210573  0.93786272  0.65018176    -0.30100
N2496       N  0.71243050  0.95269008  0.66036292     0.16400
C2497       C  0.70413379  0.94414622  0.69100997    -0.30100
H2498       H  0.68167133  0.95274980  0.70546730     0.18300
C2499       C  0.80979214  0.46389660  0.70756396    -0.29100
N2500       N  0.79285994  0.48931742  0.72374063     0.15100
C2501       C  0.76781094  0.47861142  0.74332032    -0.29100
C2502       C  0.81385451  0.87311612  0.72593006    -0.29400
N2503       N  0.80487100  0.87067593  0.75856779     0.15600
H2504       H  0.83997967  0.87624901  0.71823609     0.18200
C2505       C  0.77152937  0.87653353  0.76235135    -0.29400
H2506       H  0.75966643  0.88238214  0.78728824     0.18200
H2507       H  0.74708918  0.49428006  0.75399482     0.18200
H2508       H  0.75500913  0.94080683  0.62645580     0.18300
H2509       H  0.82651511  0.46640484  0.68619382     0.18200
C2510       C  0.61336447  0.90642407  0.54771552     0.88600
C2511       C  0.62592683  0.93451029  0.57400907    -0.51600
C2512       C  0.64212431  0.92426324  0.60024713     0.11500
C2513       C  0.64412189  0.88637776  0.60018496     0.22500
C2514       C  0.64532432  0.88327837  0.53833045    -0.52300
C2515       C  0.66080586  0.87215587  0.56665775     0.11600
C2516       C  0.59087274  0.88425455  0.56836630    -0.51900
C2517       C  0.60782937  0.87352532  0.59559402     0.12200
H2518       H  0.62417234  0.96104457  0.57166764     0.16700
H2519       H  0.65717844  0.87885901  0.62311355     0.02500
H2520       H  0.65330156  0.87222302  0.00864770     0.17000
H2521       H  0.56591787  0.87506542  0.56008125     0.16800
C2522       C  0.89557254  0.89004088  0.89052261     0.88600
C2523       C  0.87050024  0.86866743  0.91059566    -0.51600
C2524       C  0.85027479  0.84643003  0.88938643     0.11500
C2525       C  0.85669515  0.84811474  0.85183962     0.22500
C2526       C  0.91504506  0.86327415  0.86571828    -0.52300
C2527       C  0.89409035  0.84191204  0.84550699     0.11600
C2528       C  0.87238941  0.90660455  0.86594186    -0.51900
C2529       C  0.85259283  0.88423936  0.84593390     0.12200
H2530       H  0.86929909  0.87082833  0.93832862     0.16700
H2531       H  0.84025702  0.83063259  0.83480321     0.02500
H2532       H  0.94229094  0.86373192  0.86160248     0.17000
H2533       H  0.87454474  0.93266640  0.86182296     0.16800
C2534       C  0.77597732  0.74195131  0.56178107     0.32100
C2535       C  0.72785628  0.79104742  0.57152633     0.32100
C2536       C  0.78906281  0.77714830  0.56208383    -0.04100
C2537       C  0.74768187  0.73992160  0.53476726    -0.04800
C2538       C  0.75591149  0.74334547  0.59562444    -0.04700
C2539       C  0.76435107  0.80252241  0.56685158    -0.04100
C2540       C  0.72236636  0.76496448  0.54088877    -0.04800
C2541       C  0.72957755  0.76836717  0.60026052    -0.04700
C2542       C  0.77525944  0.82728944  0.54840824    -0.30100
N2543       N  0.80487899  0.81787266  0.53308070     0.16400
C2544       C  0.81344523  0.78757159  0.54100612    -0.30100
H2545       H  0.83568072  0.77357945  0.53135448     0.18300
C2546       C  0.70173000  0.76868935  0.01263358    -0.29100
N2547       N  0.71782100  0.75154905  0.98659730     0.15100
C2548       C  0.74320968  0.73301483  0.99763527    -0.29100
C2549       C  0.70125247  0.75143911  0.61015056    -0.29400
N2550       N  0.70910798  0.71902085  0.61143725     0.15600
H2551       H  0.67548559  0.75989979  0.60692166     0.18200
C2552       C  0.74240216  0.71462827  0.60537884    -0.29400
H2553       H  0.75359892  0.69009226  0.59848504     0.18200
H2554       H  0.76366078  0.72209575  0.98152897     0.18200
H2555       H  0.76202269  0.85035044  0.54560681     0.18300
H2556       H  0.68521658  0.78969188  0.00991687     0.18200
C2557       C  0.77441916  0.77346287  0.88546487     0.32100
C2558       C  0.72427141  0.72671444  0.87083541     0.32100
C2559       C  0.78510486  0.73742527  0.88658612    -0.04100
C2560       C  0.74347195  0.77700615  0.90937918    -0.04800
C2561       C  0.75783883  0.77288159  0.84978475    -0.04700
C2562       C  0.75923644  0.71354849  0.87920092    -0.04100
C2563       C  0.71711313  0.75339743  0.90060537    -0.04800
C2564       C  0.73067803  0.74895929  0.84235332    -0.04700
C2565       C  0.76649454  0.68761764  0.89747879    -0.30100
N2566       N  0.79523282  0.69462807  0.91536279     0.16400
C2567       C  0.80669635  0.72482222  0.90928207    -0.30100
H2568       H  0.82897834  0.73712188  0.92106843     0.18300
C2569       C  0.70069753  0.74773078  0.92942068    -0.29100
N2570       N  0.71798418  0.76348345  0.95540581     0.15100
C2571       C  0.74369099  0.78147246  0.94440395    -0.29100
C2572       C  0.70450535  0.76707368  0.82994495    -0.29400
N2573       N  0.71385726  0.79935627  0.83081118     0.15600
H2574       H  0.67811718  0.75946522  0.83042711     0.18200
C2575       C  0.74673349  0.80231085  0.83942994    -0.29400
H2576       H  0.75833372  0.82632833  0.84804669     0.18200
H2577       H  0.76475331  0.79121830  0.96034467     0.18200
H2578       H  0.75142709  0.66523424  0.89821189     0.18300
H2579       H  0.68341560  0.72730486  0.93200192     0.18200
C2580       C  0.59602616  0.92328271  0.51939725     0.44600
N2581       N  0.55199331  0.94783254  0.50013620     0.03500
C2582       C  0.54958666  0.60327156  0.93419537    -0.04400
H2583       H  0.53444762  0.61411037  0.55653510     0.09000
C2584       C  0.91008136  0.56258499  0.53106462    -0.04700
Co2585     Co  0.56815660  0.51198243  0.97176603     0.74200
N2586       N  0.54096854  0.57154938  0.51725463    -0.23900
Co2587     Co  0.50146913  0.57031251  0.98086614     0.74100
C2588       C  0.91735135  0.59787830  0.54446859     0.44700
N2589       N  0.94753161  0.97347447  0.50717996     0.03100
N2590       N  0.96110037  0.57457362  0.51633702     0.03200
N2591       N  0.59425192  0.56892072  0.93193113    -0.44800
H2592       H  0.62929611  0.96897008  0.51151857     0.09000
N2593       N  0.56581496  0.54880690  0.51331663     0.03500
N2594       N  0.96463667  0.56395784  0.93426088     0.03200
C2595       C  0.93060975  0.56963187  0.89005489     0.44800
N2596       N  0.97215868  0.95065755  0.50385946    -0.23400
C2597       C  0.59324310  0.97388962  0.89883372    -0.04300
N2598       N  0.56265684  0.91997289  0.51171164    -0.44500
N2599       N  0.95712662  0.58346944  0.91010615    -0.44700
C2600       C  0.58619565  0.94195864  0.87769972     0.44600
N2601       N  0.56734786  0.55465231  0.94469872     0.03500
N2602       N  0.96685743  0.94346220  0.93283676    -0.23400
N2603       N  0.57583427  0.97078932  0.50042237    -0.23900
N2604       N  0.94020141  0.96342321  0.93772604     0.03100
H2605       H  0.97192937  0.89145627  0.91257391     0.09000
H2606       H  0.90028710  0.52324937  0.90021565     0.09000
N2607       N  0.54092088  0.57479700  0.94675965    -0.23900
N2608       N  0.93827352  0.55036755  0.51376672    -0.23600
N2609       N  0.54887898  0.95121652  0.92057784     0.03500
C2610       C  0.58056577  0.57887787  0.56178173     0.44900
C2611       C  0.96836763  0.93257247  0.53042266    -0.04800
N2612       N  0.94346050  0.53807443  0.93221064    -0.23600
H2613       H  0.88589829  0.54981918  0.53069509     0.09000
N2614       N  0.58925430  0.55278288  0.53811207    -0.44800
H2615       H  0.98339187  0.91079333  0.53394678     0.09000
C2616       C  0.91972671  0.91626445  0.91105253     0.44700
C2617       C  0.60454137  0.95726591  0.51112166    -0.04300
Co2618     Co  0.00839720  0.94862752  0.96643318     0.73800
N2619       N  0.92720587  0.97117588  0.53394811    -0.44500
C2620       C  0.58553599  0.60016207  0.92456569     0.45000
N2621       N  0.55870153  0.92917456  0.89374602    -0.44500
Co2622     Co  0.94305759  0.50483223  0.96959884     0.73900
C2623       C  0.92203789  0.53944059  0.90568628    -0.04800
C2624       C  0.54862450  0.59191688  0.54683960    -0.04400
N2625       N  0.56954176  0.97760565  0.92395920    -0.23900
N2626       N  0.94957657  0.60289022  0.53393084    -0.44700
H2627       H  0.53381584  0.62538639  0.93568451     0.09000
C2628       C  0.95665682  0.91395397  0.91562712    -0.04800
Cl2629     Cl  0.50468825  0.50862304  0.97323024    -0.47800
C2630       C  0.93848781  0.94625017  0.55138336     0.44700
H2631       H  0.61504021  0.99001498  0.89753745     0.09000
N2632       N  0.91179275  0.94813008  0.92504988    -0.44500
C2633       C  0.80210774  0.79982688  0.89407290    -0.11100
C2634       C  0.82427132  0.82178449  0.89755260    -0.12700
C2635       C  0.68450802  0.84359183  0.56738043    -0.11100
C2636       C  0.70274925  0.81976980  0.57230935    -0.12700
C2637       C  0.82575255  0.88098223  0.78643373    -0.11100
C2638       C  0.83911900  0.88918411  0.81348985    -0.12700
C2639       C  0.66317066  0.94695717  0.62051217    -0.11100
C2640       C  0.68655938  0.95633131  0.63786400    -0.12700
C2641       C  0.83567864  0.64697768  0.91946102    -0.11100
C2642       C  0.81616049  0.66960505  0.92440849    -0.12700
C2643       C  0.85140015  0.86003952  0.53004294    -0.11100
C2644       C  0.82898357  0.84040433  0.52502801    -0.12700
C2645       C  0.83795753  0.91608333  0.63539298    -0.11100
C2646       C  0.81647506  0.91237997  0.65791601    -0.12700
C2647       C  0.90082855  0.80649705  0.78541210    -0.11100
C2648       C  0.90290547  0.82296896  0.81319186    -0.12700
C2649       C  0.88667353  0.68235367  0.80268653    -0.11100
C2650       C  0.89470510  0.66484112  0.82403775    -0.12700
C2651       C  0.91841355  0.85450096  0.62724859    -0.11100
C2652       C  0.91416297  0.83679057  0.64950452    -0.12700
C2653       C  0.69736395  0.69922218  0.86834509    -0.11100
C2654       C  0.67701853  0.67701574  0.87364229    -0.12700
C2655       C  0.80333893  0.71530095  0.55586113    -0.11100
C2656       C  0.82645381  0.69458352  0.55428962    -0.12700
C2657       C  0.90263932  0.70788882  0.67041707    -0.11100
C2658       C  0.90443203  0.69124022  0.64266046    -0.12700
C2659       C  0.80613040  0.59824839  0.78446847    -0.11100
C2660       C  0.82700533  0.59478794  0.80765663    -0.12700
C2661       C  0.67181272  0.56437116  0.80365138    -0.11100
C2662       C  0.64932092  0.57698170  0.82051486    -0.12700
C2663       C  0.81132299  0.63959130  0.66170915    -0.11100
C2664       C  0.82861479  0.63157679  0.63685644    -0.12700
C2665       C  0.67424524  0.84989423  0.84962975    -0.11100
C2666       C  0.69174090  0.82580406  0.84136620    -0.12700
C2667       C  0.71136337  0.92693020  0.76370800    -0.11100
C2668       C  0.68709335  0.92905648  0.78427189    -0.12700
C2669       C  0.59322172  0.69879188  0.81160646    -0.11100
C2670       C  0.58691984  0.67861933  0.83098532    -0.12700
C2671       C  0.60581146  0.82318559  0.63035791    -0.11100
C2672       C  0.59962106  0.84463538  0.61232926    -0.12700
C2673       C  0.60289007  0.84859464  0.77980299    -0.11100
C2674       C  0.60359640  0.82126251  0.76311196    -0.12700
C2675       C  0.67022812  0.66765073  0.59414043    -0.11100
C2676       C  0.68672149  0.69256282  0.60183376    -0.12700
C2677       C  0.68068803  0.58082173  0.65463100    -0.11100
C2678       C  0.70484662  0.58015291  0.67503456    -0.12700
C2679       C  0.60299531  0.67001743  0.66113289    -0.11100
C2680       C  0.60473909  0.69797052  0.67671517    -0.12700
loop_ 
_geom_bond_atom_site_label_1 
_geom_bond_atom_site_label_2 
_geom_bond_distance 
_geom_bond_site_symmetry_2 
_ccdc_geom_bond_type 
C1            C2   1.593       .  S
C1            C7   1.556       .  S
C1            C5   1.553       .  S
C1          C265   1.592       .  S
C2            H9   1.085       .  S
C2            C3   1.399       .  D
C3            C4   1.513       .  S
C3          C332   1.504       .  S
C4            C8   1.510       .  S
C4            C6   1.514       .  S
C4           H10   1.115       .  S
C5           H11   1.086       .  S
C5            C6   1.372       .  D
C6          C334   1.444       .  S
C7           H12   1.086       .  S
C7            C8   1.376       .  D
C8          C330   1.435       .  S
C13          C15   1.536       .  S
C13          C17   1.541       .  S
C13          C16   1.506       .  S
C13         C335   1.477       .  S
C14          C18   1.536       .  S
C14          C20   1.543       .  S
C14          C19   1.507       .  S
C14         C329   1.483       .  S
C15          C23   1.392       .  A
C15          C18   1.417       .  A
C16          C27   1.356       .  A
C16          C19   1.381       .  A
C17          C31   1.380       .  A
C17          C20   1.428       .  A
C18          C21   1.380       .  A
C19          C25   1.354       .  A
C20          C28   1.395       .  A
C21          N22   1.344       .  A
C21          H34   1.083       .  S
N22          C23   1.351       .  A
N22         C326   1.405       .  S
C23          H24   1.083       .  S
C25        N1366   1.354       .  A
C25        H1375   1.081       .  S
N26        C1365   1.352       .  A
N26        C1367   1.350       .  A
N26        N1448   1.388       .  S
C27        N1366   1.350       .  A
C27        H1373   1.082       .  S
C28          N29   1.351       .  A
C28          H30   1.083       .  S
N29          C31   1.341       .  A
N29         C324   1.406       .  S
C31          H32   1.084       .  S
H33        C1367   1.081       .  S
H35        C1365   1.081       .  S
C36          C37   1.602       .  S
C36          C42   1.548       .  S
C36          C40   1.554       .  S
C36         C255   1.592       .  S
C37          H44   1.085       .  S
C37          C38   1.404       .  D
C38          C39   1.515       .  S
C38         C323   1.514       .  S
C39          C43   1.511       .  S
C39          C41   1.517       .  S
C39          H45   1.115       .  S
C40          H46   1.086       .  S
C40          C41   1.374       .  D
C41         C328   1.449       .  S
C42          H47   1.086       .  S
C42          C43   1.370       .  D
C43         C320   1.425       .  S
C48          C50   1.497       .  S
C48          C52   1.546       .  S
C48          C51   1.544       .  S
C48         C333   1.543       .  S
C49          C53   1.531       .  S
C49          C55   1.547       .  S
C49          C54   1.522       .  S
C49         C314   1.548       .  S
C50          C58   1.358       .  A
C50          C53   1.393       .  A
C51          C62   1.376       .  A
C51          C54   1.434       .  A
C52          C66   1.368       .  A
C52          C55   1.447       .  A
C53          C56   1.371       .  A
C54          C60   1.347       .  A
C55          C63   1.387       .  A
C56          N57   1.354       .  A
C56          H69   1.083       .  S
N57          C58   1.344       .  A
N57         C316   1.374       .  S
C58          H59   1.084       .  S
C60         N731   1.322       .  A
C60         H740   1.083       .  S
N61         C730   1.319       .  A
N61         C732   1.354       .  A
N61         N825   1.381       .  S
C62         N731   1.349       .  A
C62         H738   1.083       .  S
C63          N64   1.350       .  A
C63          H65   1.082       .  S
N64          C66   1.339       .  A
N64         C318   1.397       .  S
C66          H67   1.085       .  S
H68         C732   1.082       .  S
H70         C730   1.083       .  S
C71          C72   1.584       .  S
C71          C77   1.550       .  S
C71          C75   1.559       .  S
C71         C243   1.576       .  S
C72          H79   1.085       .  S
C72          C73   1.393       .  D
C73          C74   1.512       .  S
C73         C311   1.491       .  S
C74          C78   1.509       .  S
C74          C76   1.513       .  S
C74          H80   1.116       .  S
C75          H81   1.086       .  S
C75          C76   1.374       .  D
C76         C313   1.450       .  S
C77          H82   1.086       .  S
C77          C78   1.371       .  D
C78         C319   1.426       .  S
C83          C84   1.555       .  S
C83          C89   1.585       .  S
C83          C87   1.519       .  S
C83         C275   1.544       .  S
C84          H91   1.085       .  S
C84          C85   1.376       .  D
C85          C86   1.523       .  S
C85         C325   1.443       .  S
C86          C90   1.518       .  S
C86          C88   1.526       .  S
C86          H92   1.114       .  S
C87          H93   1.088       .  S
C87          C88   1.327       .  D
C88         C317   1.409       .  S
C89          H94   1.085       .  S
C89          C90   1.397       .  D
C90         C309   1.485       .  S
C95          C97   1.537       .  S
C95          C99   1.541       .  S
C95          C98   1.506       .  S
C95         C302   1.484       .  S
C96         C100   1.533       .  S
C96         C102   1.540       .  S
C96         C101   1.504       .  S
C96         C312   1.484       .  S
C97         C105   1.391       .  A
C97         C100   1.419       .  A
C98         C101   1.380       .  A
C98        C1449   1.356       .  A
C99         C113   1.378       .  A
C99         C102   1.430       .  A
C100        C103   1.376       .  A
C101       C1447   1.352       .  A
C102        C110   1.391       .  A
C103        N104   1.341       .  A
C103        H116   1.084       .  S
N104        C105   1.352       .  A
N104        C307   1.400       .  S
C105        H106   1.083       .  S
C107       C1441   1.356       .  A
C107        N108   1.354       .  A
C107        H117   1.081       .  S
N108        C109   1.350       .  A
N108       N1366   1.390   1_655  S
C109       C1438   1.353       .  A
C109        H115   1.081       .  S
C110        N111   1.349       .  A
C110        H112   1.083       .  S
N111        C113   1.340       .  A
N111        C304   1.400       .  S
C113        H114   1.084       .  S
C118        C119   1.520       .  S
C118        C124   1.546       .  S
C118        C122   1.604       .  S
C118        C285   1.556       .  S
C119        H126   1.088       .  S
C119        C120   1.338       .  D
C120        C121   1.532       .  S
C120        C298   1.416       .  S
C121        C125   1.523       .  S
C121        C123   1.520       .  S
C121        H127   1.114       .  S
C122        H128   1.085       .  S
C122        C123   1.411       .  D
C123        C300   1.514       .  S
C124        H129   1.086       .  S
C124        C125   1.367       .  D
C125        C306   1.437       .  S
C130        C131   1.521       .  S
C130        C136   1.548       .  S
C130        C134   1.602       .  S
C130        C250   1.552       .  S
C131        H138   1.088       .  S
C131        C132   1.338       .  D
C132        C133   1.528       .  S
C132        C296   1.415       .  S
C133        C137   1.519       .  S
C133        C135   1.518       .  S
C133        H139   1.114       .  S
C134        H140   1.085       .  S
C134        C135   1.409       .  D
C135        C315   1.510       .  S
C136        H141   1.086       .  S
C136        C137   1.369       .  D
C137        C305   1.435       .  S
C142        C144   1.494       .  S
C142        C146   1.546       .  S
C142        C145   1.554       .  S
C142        C322   1.554       .  S
C143        C147   1.538       .  S
C143        C149   1.546       .  S
C143        C148   1.516       .  S
C143        C301   1.551       .  S
C144        C152   1.357       .  A
C144        C147   1.402       .  A
C145        C148   1.432       .  A
C145        C826   1.380       .  A
C146        C160   1.366       .  A
C146        C149   1.447       .  A
C147        C150   1.374       .  A
C148        C824   1.349       .  A
C149        C157   1.387       .  A
C150        N151   1.354       .  A
C150        H163   1.083       .  S
N151        C152   1.339       .  A
N151        C295   1.374       .  S
C152        H153   1.084       .  S
C154        C818   1.349       .  A
C154        N155   1.318       .  A
C154        H164   1.083       .  S
N155        C156   1.351       .  A
N155        N731   1.378   1_565  S
C156        C815   1.379       .  A
C156        H162   1.082       .  S
C157        N158   1.349       .  A
C157        H159   1.084       .  S
N158        C160   1.338       .  A
N158        C292   1.394       .  S
C160        H161   1.085       .  S
C165        C166   1.520       .  S
C165        C171   1.554       .  S
C165        C169   1.585       .  S
C165        C235   1.544       .  S
C166        H173   1.087       .  S
C166        C167   1.332       .  D
C167        C168   1.529       .  S
C167        C294   1.408       .  S
C168        C172   1.524       .  S
C168        C170   1.520       .  S
C168        H174   1.113       .  S
C169        H510   1.085       .  S
C169        C170   1.396       .  D
C170        C290   1.492       .  S
C171        H176   1.085       .  S
C171        C172   1.374       .  D
C172        C327   1.441       .  S
H175        C504   1.085       .  S
C177        C178   1.578       .  S
C177        C183   1.546       .  S
C177        C181   1.562       .  S
C177        C271   1.564       .  S
C178        H185   1.085       .  S
C178        C179   1.389       .  D
C179        C180   1.511       .  S
C179        C289   1.479       .  S
C180        C184   1.510       .  S
C180        C182   1.510       .  S
C180        H186   1.116       .  S
C181        H187   1.085       .  S
C181        C182   1.375       .  D
C182        C303   1.449       .  S
C183        H188   1.086       .  S
C183        C184   1.366       .  D
C184        C293   1.421       .  S
C189        C191   1.507       .  S
C189        C193   1.547       .  S
C189        C192   1.543       .  S
C189        C310   1.530       .  S
C190        C194   1.529       .  S
C190        C196   1.546       .  S
C190        C195   1.513       .  S
C190        C291   1.526       .  S
C191        C199   1.369       .  A
C191        C194   1.401       .  A
C192        C195   1.420       .  A
C192        C538   1.371       .  A
C193        C207   1.373       .  A
C193        C196   1.444       .  A
C194        C197   1.375       .  A
C195        C536   1.350       .  A
C196        C204   1.391       .  A
C197        N198   1.348       .  A
C197        H210   1.083       .  S
N198        C199   1.344       .  A
N198        C299   1.380       .  S
C199        H200   1.083       .  S
C201        C530   1.347       .  A
C201        N202   1.325       .  A
C201        H211   1.083       .  S
N202        C203   1.350       .  A
N202        N225   1.375       .  S
C203        C527   1.368       .  A
C203        H209   1.083       .  S
C204        N205   1.351       .  A
C204        H206   1.084       .  S
N205        C207   1.340       .  A
N205        C331   1.402       .  S
C207        H208   1.085       .  S
C212        C214   1.511       .  S
C212        C216   1.543       .  S
C212        C215   1.537       .  S
C212        C288   1.519       .  S
C213        C217   1.527       .  S
C213        C219   1.542       .  S
C213        C218   1.509       .  S
C213        C308   1.519       .  S
C214        C222   1.373       .  A
C214        C217   1.406       .  A
C215        C226   1.370       .  A
C215        C218   1.419       .  A
C216        C230   1.373       .  A
C216        C219   1.441       .  A
C217        C220   1.372       .  A
C218        C224   1.351       .  A
C219        C227   1.387       .  A
C220        N221   1.344       .  A
C220        H233   1.083       .  S
N221        C222   1.344       .  A
N221        C297   1.380       .  S
C222        H223   1.083       .  S
C224        N225   1.322       .  A
C224        H234   1.083       .  S
N225        C226   1.350       .  A
C226        H232   1.083       .  S
C227        N228   1.349       .  A
C227        H229   1.083       .  S
N228        C230   1.339       .  A
N228        C321   1.396       .  S
C230        H231   1.085       .  S
C235        N253   1.354       .  A
C235        C272   1.486       .  S
N236        N253   1.333   1_556  A
N236        N258   1.316       .  A
N236      Co1948   2.074       .  S
C237        N262   1.353       .  A
C237        H282   1.081       .  S
C237        C275   1.470       .  S
H238        C279   1.081       .  S
C239        N263   1.365       .  A
C239        H268   1.081       .  S
C239        C243   1.487       .  S
Co240       N256   2.118       .  S
Co240      N1263   2.119   1_545  S
Co240       N583   2.135       .  S
Co240       N950   2.133   1_545  S
Co240      Cl284   2.501       .  S
N241        C279   1.369       .  A
N241        N248   1.335       .  A
N241       Co577   2.241   1_554  S
Co242       N262   2.084       .  S
Co242       N576   2.242       .  S
Co242      N1920   2.100   1_455  S
Co242      N1589   2.218   1_455  S
Co242      Cl284   2.478       .  S
C243        N281   1.358       .  A
N244        N251   1.330       .  A
N244        N274   1.334       .  A
N244      Co1282   2.099   1_554  S
N245        N263   1.322       .  A
N245        N281   1.338       .  A
N245      Co1917   2.105   1_554  S
N246        C275   1.365       .  A
N246        N256   1.329       .  A
H247        C272   1.082       .  S
N248        N269   1.340       .  A
N248       Co575   2.130   1_554  S
N249        N267   1.329       .  A
N249        N254   1.338       .  A
N249      Co1582   2.215       .  S
C250        N254   1.380       .  A
C250        C278   1.471       .  S
N251        C266   1.358       .  A
N251       Co608   2.224   1_554  S
C252        N280   1.355       .  A
C252        H286   1.081       .  S
C252        C255   1.470       .  S
C255        N276   1.387       .  A
N256        N262   1.316       .  A
N257        C283   1.354       .  A
N257        N259   1.323       .  A
N257       Co273   2.108       .  S
N258        C272   1.347   1_556  A
N258      Co1245   2.125       .  S
N259        N287   1.340       .  A
N259       Co947   2.149       .  S
H260        C283   1.081       .  S
H261        C278   1.082       .  S
N263       Co612   2.163   1_554  S
N264        N276   1.349       .  A
N264        N280   1.333       .  A
N264      Co1613   2.254       .  S
C265        N269   1.358       .  A
C265        C279   1.508       .  S
C266        H270   1.082       .  S
C266        C285   1.505       .  S
N267        C278   1.349       .  A
N267       Co277   2.107       .  S
C271        N287   1.364       .  A
C271        C283   1.471       .  S
Co273      N1911   2.075       .  S
Co273       N586   2.219       .  S
Co273      N1604   2.253       .  S
Co273     Cl2294   2.483       .  S
N274        C285   1.357       .  A
Co277      N1249   2.105   1_545  S
Co277       N929   2.149   1_545  S
Co277       N598   2.149       .  S
Co277     Cl1624   2.505       .  S
N280       Co910   2.128       .  S
Cl284     Co2283   2.476   1_545  S
Cl284     Co1617   2.509   1_455  S
C288        C289   1.232       .  T
C290        C291   1.238       .  T
C292        C293   1.198       .  T
C294        C295   1.183       .  T
C296        C297   1.186       .  T
C298        C299   1.187       .  T
C300        C301   1.251       .  T
C302        C303   1.213       .  T
C304        C305   1.204       .  T
C306        C307   1.204       .  T
C308        C309   1.234       .  T
C310        C311   1.238       .  T
C312        C313   1.213       .  T
C314        C315   1.250       .  T
C316        C317   1.183       .  T
C318        C319   1.200       .  T
C320        C321   1.200       .  T
C322        C323   1.252       .  T
C324        C325   1.209       .  T
C326        C327   1.208       .  T
C328        C329   1.212       .  T
C330        C331   1.205       .  T
C332        C333   1.246       .  T
C334        C335   1.209       .  T
C336        C337   1.599       .  S
C336        C342   1.553       .  S
C336        C340   1.553       .  S
C336        C600   1.593       .  S
C337        H344   1.085       .  S
C337        C338   1.404       .  D
C338        C339   1.514       .  S
C338        C667   1.512       .  S
C339        C343   1.511       .  S
C339        C341   1.514       .  S
C339        H345   1.115       .  S
C340        H346   1.086       .  S
C340        C341   1.371       .  D
C341        C669   1.445       .  S
C342        H347   1.086       .  S
C342        C343   1.373       .  D
C343        C665   1.430       .  S
C348        C350   1.543       .  S
C348        C352   1.535       .  S
C348        C351   1.511       .  S
C348        C670   1.479       .  S
C349        C353   1.537       .  S
C349        C355   1.532       .  S
C349        C354   1.508       .  S
C349        C664   1.473       .  S
C350        C358   1.396       .  A
C350        C353   1.422       .  A
C351        C362   1.360       .  A
C351        C354   1.395       .  A
C352        C366   1.381       .  A
C352        C355   1.415       .  A
C353        C356   1.381       .  A
C354        C360   1.361       .  A
C355        C363   1.392       .  A
C356        N357   1.342       .  A
C356        H369   1.084       .  S
N357        C358   1.351       .  A
N357        C661   1.406       .  S
C358        H359   1.083       .  S
C360       N1701   1.346       .  A
C360       H1710   1.082       .  S
N361       C1700   1.346       .  A
N361       C1702   1.345       .  A
N361       N1783   1.390       .  S
C362       N1701   1.350       .  A
C362       H1708   1.082       .  S
C363        N364   1.350       .  A
C363        H365   1.083       .  S
N364        C366   1.343       .  A
N364        C659   1.404       .  S
C366        H367   1.083       .  S
H368       C1702   1.082       .  S
H370       C1700   1.081       .  S
C371        C372   1.597       .  S
C371        C377   1.551       .  S
C371        C375   1.549       .  S
C371        C590   1.583       .  S
C372        H379   1.085       .  S
C372        C373   1.401       .  D
C373        C374   1.510       .  S
C373        C658   1.505       .  S
C374        C378   1.509       .  S
C374        C376   1.513       .  S
C374        H380   1.115       .  S
C375        H381   1.086       .  S
C375        C376   1.370       .  D
C376        C663   1.437       .  S
C377        H382   1.086       .  S
C377        C378   1.371       .  D
C378        C655   1.427       .  S
C383        C385   1.500       .  S
C383        C387   1.547       .  S
C383        C386   1.547       .  S
C383        C668   1.552       .  S
C384        C388   1.534       .  S
C384        C390   1.544       .  S
C384        C389   1.515       .  S
C384        C649   1.552       .  S
C385        C393   1.361       .  A
C385        C388   1.404       .  A
C386        C397   1.376       .  A
C386        C389   1.430       .  A
C387        C401   1.369       .  A
C387        C390   1.448       .  A
C388        C391   1.373       .  A
C389        C395   1.346       .  A
C390        C398   1.385       .  A
C391        N392   1.352       .  A
C391        H404   1.083       .  S
N392        C393   1.341       .  A
N392        C651   1.374       .  S
C393        H394   1.084       .  S
C395       N1066   1.321       .  A
C395       H1075   1.083       .  S
N396       C1065   1.319       .  A
N396       C1067   1.350       .  A
N396       N1160   1.376       .  S
C397       N1066   1.351       .  A
C397       H1073   1.083       .  S
C398        N399   1.348       .  A
C398        H400   1.082       .  S
N399        C401   1.339       .  A
N399        C653   1.396       .  S
C401        H402   1.085       .  S
H403       C1067   1.083       .  S
H405       C1065   1.083       .  S
C406        C407   1.583       .  S
C406        C412   1.550       .  S
C406        C410   1.559       .  S
C406        C578   1.573       .  S
C407        H414   1.085       .  S
C407        C408   1.393       .  D
C408        C409   1.511       .  S
C408        C646   1.489       .  S
C409        C413   1.508       .  S
C409        C411   1.511       .  S
C409        H415   1.116       .  S
C410        H416   1.086       .  S
C410        C411   1.375       .  D
C411        C648   1.447       .  S
C412        H417   1.086       .  S
C412        C413   1.368       .  D
C413        C654   1.424       .  S
C418        C419   1.557       .  S
C418        C424   1.577       .  S
C418        C422   1.518       .  S
C418        C610   1.533       .  S
C419        H426   1.085       .  S
C419        C420   1.373       .  D
C420        C421   1.523       .  S
C420        C660   1.441       .  S
C421        C425   1.523       .  S
C421        C423   1.530       .  S
C421        H427   1.113       .  S
C422        H428   1.088       .  S
C422        C423   1.331       .  D
C423        C652   1.408       .  S
C424        H429   1.085       .  S
C424        C425   1.392       .  D
C425        C644   1.484       .  S
C430        C432   1.536       .  S
C430        C434   1.540       .  S
C430        C433   1.510       .  S
C430        C637   1.479       .  S
C431        C435   1.534       .  S
C431        C437   1.543       .  S
C431        C436   1.504       .  S
C431        C647   1.482       .  S
C432        C440   1.391       .  A
C432        C435   1.412       .  A
C433       C1784   1.356       .  A
C433        C436   1.378       .  A
C434        C448   1.376       .  A
C434        C437   1.431       .  A
C435        C438   1.379       .  A
C436       C1782   1.353       .  A
C437        C445   1.393       .  A
C438        N439   1.344       .  A
C438        H451   1.083       .  S
N439        C440   1.353       .  A
N439        C642   1.405       .  S
C440        H441   1.083       .  S
C442       C1776   1.357       .  A
C442        N443   1.353       .  A
C442        H452   1.082       .  S
N443        C444   1.356       .  A
N443       N1701   1.393   1_655  S
C444       C1773   1.354       .  A
C444        H450   1.082       .  S
C445        N446   1.350       .  A
C445        H447   1.083       .  S
N446        C448   1.339       .  A
N446        C639   1.401       .  S
C448        H449   1.084       .  S
C453        C454   1.520       .  S
C453        C459   1.552       .  S
C453        C457   1.602       .  S
C453        C620   1.559       .  S
C454        H461   1.088       .  S
C454        C455   1.340       .  D
C455        C456   1.527       .  S
C455        C633   1.413       .  S
C456        C460   1.521       .  S
C456        C458   1.517       .  S
C456        H462   1.114       .  S
C457        H463   1.085       .  S
C457        C458   1.409       .  D
C458        C635   1.508       .  S
C459        H464   1.086       .  S
C459        C460   1.371       .  D
C460        C641   1.443       .  S
C465        C466   1.522       .  S
C465        C471   1.547       .  S
C465        C469   1.602       .  S
C465        C585   1.556       .  S
C466        H473   1.088       .  S
C466        C467   1.340       .  D
C467        C468   1.532       .  S
C467        C631   1.419       .  S
C468        C472   1.520       .  S
C468        C470   1.521       .  S
C468        H474   1.114       .  S
C469        H475   1.085       .  S
C469        C470   1.409       .  D
C470        C650   1.514       .  S
C471        H476   1.086       .  S
C471        C472   1.369       .  D
C472        C640   1.436       .  S
C477        C479   1.501       .  S
C477        C481   1.542       .  S
C477        C480   1.538       .  S
C477        C657   1.545       .  S
C478        C482   1.537       .  S
C478        C484   1.542       .  S
C478        C483   1.517       .  S
C478        C636   1.547       .  S
C479        C487   1.359       .  A
C479        C482   1.411       .  A
C480       C1161   1.376       .  A
C480        C483   1.432       .  A
C481        C495   1.366       .  A
C481        C484   1.444       .  A
C482        C485   1.377       .  A
C483       C1159   1.350       .  A
C484        C492   1.384       .  A
C485        N486   1.351       .  A
C485        H498   1.083       .  S
N486        C487   1.338       .  A
N486        C630   1.372       .  S
C487        H488   1.084       .  S
C489       C1153   1.351       .  A
C489        N490   1.320       .  A
C489        H499   1.083       .  S
N490        C491   1.348       .  A
N490       N1066   1.377   1_565  S
C491       C1150   1.376       .  A
C491        H497   1.083       .  S
C492        N493   1.348       .  A
C492        H494   1.084       .  S
N493        C495   1.339       .  A
N493        C627   1.391       .  S
C495        H496   1.085       .  S
C500        C501   1.518       .  S
C500        C506   1.555       .  S
C500        C504   1.586       .  S
C500        C570   1.544       .  S
C501        H508   1.086       .  S
C501        C502   1.328       .  D
C502        C503   1.529       .  S
C502        C629   1.408       .  S
C503        C507   1.525       .  S
C503        C505   1.520       .  S
C503        H509   1.113       .  S
C504        C505   1.397       .  D
C505        C625   1.492       .  S
C506        H511   1.086       .  S
C506        C507   1.375       .  D
C507        C662   1.443       .  S
C512        C513   1.581       .  S
C512        C518   1.543       .  S
C512        C516   1.561       .  S
C512        C606   1.566       .  S
C513        H520   1.085       .  S
C513        C514   1.392       .  D
C514        C515   1.513       .  S
C514        C624   1.485       .  S
C515        C519   1.511       .  S
C515        C517   1.511       .  S
C515        H521   1.115       .  S
C516        H522   1.085       .  S
C516        C517   1.371       .  D
C517        C638   1.446       .  S
C518        H523   1.086       .  S
C518        C519   1.365       .  D
C519        C628   1.420       .  S
C524        C526   1.505       .  S
C524        C528   1.548       .  S
C524        C527   1.537       .  S
C524        C645   1.528       .  S
C525        C529   1.527       .  S
C525        C531   1.546       .  S
C525        C530   1.514       .  S
C525        C626   1.527       .  S
C526        C534   1.365       .  A
C526        C529   1.396       .  A
C527        C530   1.420       .  A
C528        C542   1.373       .  A
C528        C531   1.448       .  A
C529        C532   1.373       .  A
C531        C539   1.388       .  A
C532        N533   1.350       .  A
C532        H545   1.083       .  S
N533        C534   1.344       .  A
N533        C634   1.379       .  S
C534        H535   1.083       .  S
C536        N537   1.324   1_554  A
C536        H546   1.083       .  S
N537        C538   1.353   1_556  A
N537        N560   1.379       .  S
C538        H544   1.082   1_554  S
C539        N540   1.349       .  A
C539        H541   1.084       .  S
N540        C542   1.341       .  A
N540        C666   1.400       .  S
C542        H543   1.085       .  S
C547        C549   1.513       .  S
C547        C551   1.545       .  S
C547        C550   1.541       .  S
C547        C623   1.525       .  S
C548        C552   1.525       .  S
C548        C554   1.540       .  S
C548        C553   1.515       .  S
C548        C643   1.518       .  S
C549        C557   1.374       .  A
C549        C552   1.401       .  A
C550        C561   1.370       .  A
C550        C553   1.423       .  A
C551        C565   1.373       .  A
C551        C554   1.440       .  A
C552        C555   1.372       .  A
C553        C559   1.354       .  A
C554        C562   1.387       .  A
C555        N556   1.346       .  A
C555        H568   1.083       .  S
N556        C557   1.347       .  A
N556        C632   1.382       .  S
C557        H558   1.083       .  S
C559        N560   1.324       .  A
C559        H569   1.083       .  S
N560        C561   1.350       .  A
C561        H567   1.083       .  S
C562        N563   1.348       .  A
C562        H564   1.084       .  S
N563        C565   1.340       .  A
N563        C656   1.397       .  S
C565        H566   1.085       .  S
C570        N588   1.353       .  A
C570        C607   1.487       .  S
N571        N588   1.333       .  A
N571        N593   1.318       .  A
N571      Co1613   2.070       .  S
C572        N597   1.346       .  A
C572        H617   1.081       .  S
C572        C610   1.462       .  S
H573        C614   1.081       .  S
C574        N598   1.361       .  A
C574        H603   1.081       .  S
C574        C578   1.481       .  S
Co575       N928   2.119   1_546  S
Co575      N1285   2.112   1_545  S
Co575       N591   2.118       .  S
Co575      Cl619   2.502       .  S
N576        C614   1.368       .  A
N576        N583   1.335       .  A
Co577      N1585   2.099   1_456  S
Co577       N597   2.059       .  S
Co577      N1924   2.208   1_455  S
Co577      Cl619   2.465       .  S
C578        N616   1.361       .  A
N579        N586   1.332       .  A
N579        N609   1.335       .  A
N579       Co947   2.114       .  S
N580        N598   1.322       .  A
N580        N616   1.339       .  A
N580      Co1582   2.117       .  S
N581        C610   1.367       .  A
N581        N591   1.329       .  A
H582        C607   1.082       .  S
N583        N604   1.341       .  A
N584        N602   1.330       .  A
N584        N589   1.339       .  A
N584      Co1917   2.217       .  S
C585        N589   1.380       .  A
C585        C613   1.472       .  S
N586        C601   1.359       .  A
C587        N615   1.355       .  A
C587        H621   1.082       .  S
C587        C590   1.468       .  S
C590        N611   1.383       .  A
N591        N597   1.313       .  A
N592        C618   1.351       .  A
N592        N594   1.322       .  A
N592       Co608   2.096       .  S
N593        C607   1.346       .  A
N593       Co910   2.127       .  S
N594        N622   1.342       .  A
N594      Co1282   2.152       .  S
H595        C618   1.081       .  S
H596        C613   1.082       .  S
N599        N611   1.346       .  A
N599        N615   1.333       .  A
N599      Co1948   2.239       .  S
C600        N604   1.360       .  A
C600        C614   1.507       .  S
C601        H605   1.082       .  S
C601        C620   1.503       .  S
N602        C613   1.350       .  A
N602       Co612   2.115       .  S
C606        N622   1.367       .  A
C606        C618   1.468       .  S
Co608      N1576   2.063       .  S
Co608      N1939   2.256       .  S
Co608     Cl2629   2.470       .  S
N609        C620   1.360       .  A
Co612       N914   2.118   1_546  S
Co612      N1264   2.156   1_545  S
Co612     Cl1959   2.512       .  S
N615      Co1245   2.126       .  S
Cl619     Co2618   2.464   1_545  S
Cl619     Co1952   2.511   1_455  S
C623        C624   1.235       .  T
C625        C626   1.238       .  T
C627        C628   1.196       .  T
C629        C630   1.182       .  T
C631        C632   1.188       .  T
C633        C634   1.187       .  T
C635        C636   1.248       .  T
C637        C638   1.210       .  T
C639        C640   1.204       .  T
C641        C642   1.208       .  T
C643        C644   1.233       .  T
C645        C646   1.237       .  T
C647        C648   1.212       .  T
C649        C650   1.251       .  T
C651        C652   1.183       .  T
C653        C654   1.199       .  T
C655        C656   1.201       .  T
C657        C658   1.246       .  T
C659        C660   1.207       .  T
C661        C662   1.209       .  T
C663        C664   1.206       .  T
C665        C666   1.203       .  T
C667        C668   1.251       .  T
C669        C670   1.210       .  T
C671        C672   1.589       .  S
C671        C677   1.548       .  S
C671        C675   1.555       .  S
C671        C935   1.578       .  S
C672        H679   1.085       .  S
C672        C673   1.394       .  D
C673        C674   1.516       .  S
C673       C1002   1.501       .  S
C674        C678   1.513       .  S
C674        C676   1.516       .  S
C674        H680   1.115       .  S
C675        H681   1.086       .  S
C675        C676   1.376       .  D
C676       C1004   1.449       .  S
C677        H682   1.086       .  S
C677        C678   1.370       .  D
C678       C1000   1.429       .  S
C683        C685   1.543       .  S
C683        C687   1.543       .  S
C683        C686   1.503       .  S
C683       C1005   1.482       .  S
C684        C688   1.535       .  S
C684        C690   1.537       .  S
C684        C689   1.507       .  S
C684        C999   1.482       .  S
C685        C693   1.396       .  A
C685        C688   1.423       .  A
C686        C697   1.354       .  A
C686        C689   1.382       .  A
C687        C701   1.384       .  A
C687        C690   1.424       .  A
C688        C691   1.378       .  A
C689        C695   1.352       .  A
C690        C698   1.393       .  A
C691        N692   1.341       .  A
C691        H704   1.084       .  S
N692        C693   1.352       .  A
N692        C996   1.405       .  S
C693        H694   1.083       .  S
C695       N2036   1.351       .  A
C695       H2045   1.081       .  S
N696       C2035   1.346       .  A
N696       C2037   1.343       .  A
N696       N2118   1.392       .  S
C697       N2036   1.348       .  A
C697       H2043   1.082       .  S
C698        N699   1.349       .  A
C698        H700   1.083       .  S
N699        C701   1.345       .  A
N699        C994   1.407       .  S
C701        H702   1.083       .  S
H703       C2037   1.082       .  S
H705       C2035   1.081       .  S
C706        C707   1.603       .  S
C706        C712   1.552       .  S
C706        C710   1.553       .  S
C706        C925   1.599       .  S
C707        H714   1.085       .  S
C707        C708   1.405       .  D
C708        C709   1.512       .  S
C708        C993   1.513       .  S
C709        C713   1.510       .  S
C709        C711   1.516       .  S
C709        H715   1.115       .  S
C710        H716   1.086       .  S
C710        C711   1.373       .  D
C711        C998   1.446       .  S
C712        H717   1.086       .  S
C712        C713   1.373       .  D
C713        C990   1.431       .  S
C718        C720   1.493       .  S
C718        C722   1.546       .  S
C718        C721   1.552       .  S
C718       C1003   1.539       .  S
C719        C723   1.531       .  S
C719        C725   1.548       .  S
C719        C724   1.522       .  S
C719        C984   1.546       .  S
C720        C728   1.357       .  A
C720        C723   1.386       .  A
C721        C732   1.378       .  A
C721        C724   1.435       .  A
C722        C736   1.371       .  A
C722        C725   1.446       .  A
C723        C726   1.367       .  A
C724        C730   1.347       .  A
C725        C733   1.388       .  A
C726        N727   1.356       .  A
C726        H739   1.083       .  S
N727        C728   1.345       .  A
N727        C986   1.374       .  S
C728        H729   1.084       .  S
C733        N734   1.351       .  A
C733        H735   1.083       .  S
N734        C736   1.339       .  A
N734        C988   1.399       .  S
C736        H737   1.086       .  S
C741        C742   1.575       .  S
C741        C747   1.554       .  S
C741        C745   1.560       .  S
C741        C913   1.569       .  S
C742        H749   1.085       .  S
C742        C743   1.387       .  D
C743        C744   1.512       .  S
C743        C981   1.476       .  S
C744        C748   1.506       .  S
C744        C746   1.511       .  S
C744        H750   1.115       .  S
C745        H751   1.086       .  S
C745        C746   1.374       .  D
C746        C983   1.451       .  S
C747        H752   1.085       .  S
C747        C748   1.373       .  D
C748        C989   1.428       .  S
C753        C754   1.560       .  S
C753        C759   1.586       .  S
C753        C757   1.518       .  S
C753        C945   1.549       .  S
C754        H761   1.085       .  S
C754        C755   1.377       .  D
C755        C756   1.519       .  S
C755        C995   1.443       .  S
C756        C760   1.518       .  S
C756        C758   1.524       .  S
C756        H762   1.114       .  S
C757        H763   1.088       .  S
C757        C758   1.330       .  D
C758        C987   1.406       .  S
C759        H764   1.085       .  S
C759        C760   1.398       .  D
C760        C979   1.491       .  S
C765        C767   1.536       .  S
C765        C769   1.543       .  S
C765        C768   1.510       .  S
C765        C972   1.480       .  S
C766        C770   1.531       .  S
C766        C772   1.547       .  S
C766        C771   1.507       .  S
C766        C982   1.484       .  S
C767        C775   1.391       .  A
C767        C770   1.405       .  A
C768       C2119   1.354       .  A
C768        C771   1.378       .  A
C769        C783   1.380       .  A
C769        C772   1.435       .  A
C770        C773   1.379       .  A
C771       C2117   1.352       .  A
C772        C780   1.393       .  A
C773        N774   1.345       .  A
C773        H786   1.083       .  S
N774        C775   1.355       .  A
N774        C977   1.405       .  S
C775        H776   1.082       .  S
C777       C2111   1.356       .  A
C777        N778   1.351       .  A
C777        H787   1.082       .  S
N778        C779   1.348       .  A
N778       N2036   1.386   1_655  S
C779       C2108   1.351       .  A
C779        H785   1.081       .  S
C780        N781   1.352       .  A
C780        H782   1.083       .  S
N781        C783   1.341       .  A
N781        C974   1.406       .  S
C783        H784   1.084       .  S
C788        C789   1.520       .  S
C788        C794   1.550       .  S
C788        C792   1.603       .  S
C788        C955   1.561       .  S
C789        H796   1.088       .  S
C789        C790   1.341       .  D
C790        C791   1.529       .  S
C790        C968   1.415       .  S
C791        C795   1.523       .  S
C791        C793   1.518       .  S
C791        H797   1.114       .  S
C792        H798   1.085       .  S
C792        C793   1.411       .  D
C793        C970   1.510       .  S
C794        H799   1.086       .  S
C794        C795   1.368       .  D
C795        C976   1.443       .  S
C800        C801   1.522       .  S
C800        C806   1.553       .  S
C800        C804   1.601       .  S
C800        C920   1.563       .  S
C801        H808   1.088       .  S
C801        C802   1.339       .  D
C802        C803   1.533       .  S
C802        C966   1.418       .  S
C803        C807   1.518       .  S
C803        C805   1.518       .  S
C803        H809   1.114       .  S
C804        H810   1.085       .  S
C804        C805   1.408       .  D
C805        C985   1.509       .  S
C806        H811   1.086       .  S
C806        C807   1.375       .  D
C807        C975   1.443       .  S
C812        C814   1.500       .  S
C812        C816   1.543       .  S
C812        C815   1.546       .  S
C812        C992   1.554       .  S
C813        C817   1.533       .  S
C813        C819   1.542       .  S
C813        C818   1.516       .  S
C813        C971   1.549       .  S
C814        C822   1.357       .  A
C814        C817   1.408       .  A
C815        C818   1.432       .  A
C816        C830   1.364       .  A
C816        C819   1.447       .  A
C817        C820   1.372       .  A
C819        C827   1.382       .  A
C820        N821   1.349       .  A
C820        H833   1.083       .  S
N821        C822   1.339       .  A
N821        C965   1.370       .  S
C822        H823   1.084       .  S
C824        N825   1.316       .  A
C824        H834   1.083       .  S
N825        C826   1.355       .  A
C826        H832   1.083       .  S
C827        N828   1.347       .  A
C827        H829   1.084       .  S
N828        C830   1.337       .  A
N828        C962   1.388       .  S
C830        H831   1.085       .  S
C835        C836   1.520       .  S
C835        C841   1.555       .  S
C835        C839   1.584       .  S
C835        C905   1.538       .  S
C836        H843   1.086       .  S
C836        C837   1.328       .  D
C837        C838   1.523       .  S
C837        C964   1.405       .  S
C838        C842   1.522       .  S
C838        C840   1.513       .  S
C838        H844   1.114       .  S
C839       H1180   1.085       .  S
C839        C840   1.395       .  D
C840        C960   1.479       .  S
C841        H846   1.085       .  S
C841        C842   1.375       .  D
C842        C997   1.442       .  S
H845       C1174   1.085       .  S
C847        C848   1.583       .  S
C847        C853   1.539       .  S
C847        C851   1.561       .  S
C847        C941   1.558       .  S
C848        H855   1.085       .  S
C848        C849   1.393       .  D
C849        C850   1.511       .  S
C849        C959   1.486       .  S
C850        C854   1.511       .  S
C850        C852   1.511       .  S
C850        H856   1.115       .  S
C851        H857   1.085       .  S
C851        C852   1.371       .  D
C852        C973   1.446       .  S
C853        H858   1.086       .  S
C853        C854   1.361       .  D
C854        C963   1.412       .  S
C859        C861   1.502       .  S
C859        C863   1.548       .  S
C859        C862   1.530       .  S
C859        C980   1.515       .  S
C860        C864   1.525       .  S
C860        C866   1.543       .  S
C860        C865   1.516       .  S
C860        C961   1.516       .  S
C861        C869   1.363       .  A
C861        C864   1.389       .  A
C862       C1208   1.367   1_554  A
C862        C865   1.420       .  A
C863        C877   1.373       .  A
C863        C866   1.446       .  A
C864        C867   1.374       .  A
C865       C1206   1.345       .  A
C866        C874   1.388       .  A
C867        N868   1.351       .  A
C867        H880   1.083       .  S
N868        C869   1.345       .  A
N868        C969   1.380       .  S
C869        H870   1.083       .  S
C871       C1200   1.349       .  A
C871        N872   1.323       .  A
C871        H881   1.083       .  S
N872        C873   1.350       .  A
N872        N895   1.376       .  S
C873       C1197   1.369       .  A
C873        H879   1.082       .  S
C874        N875   1.348       .  A
C874        H876   1.084       .  S
N875        C877   1.341       .  A
N875       C1001   1.399       .  S
C877        H878   1.085       .  S
C882        C884   1.518       .  S
C882        C886   1.547       .  S
C882        C885   1.537       .  S
C882        C958   1.526       .  S
C883        C887   1.524       .  S
C883        C889   1.542       .  S
C883        C888   1.513       .  S
C883        C978   1.525       .  S
C884        C892   1.378       .  A
C884        C887   1.405       .  A
C885        C896   1.370       .  A
C885        C888   1.421       .  A
C886        C900   1.377       .  A
C886        C889   1.443       .  A
C887        C890   1.371       .  A
C888        C894   1.350       .  A
C889        C897   1.387       .  A
C890        N891   1.342       .  A
C890        H903   1.083       .  S
N891        C892   1.348       .  A
N891        C967   1.381       .  S
C892        H893   1.083       .  S
C894        N895   1.322       .  A
C894        H904   1.083       .  S
N895        C896   1.350       .  A
C896        H902   1.083       .  S
C897        N898   1.349       .  A
C897        H899   1.084       .  S
N898        C900   1.341       .  A
N898        C991   1.400       .  S
C900        H901   1.085       .  S
C905        N923   1.350       .  A
C905        C942   1.485       .  S
N906        N923   1.332   1_556  A
N906        N928   1.318   1_556  A
N906      Co2618   2.065       .  S
C907        N932   1.352       .  A
C907        H952   1.081       .  S
C907        C945   1.469       .  S
H908        C949   1.081       .  S
C909        N933   1.362       .  A
C909        H938   1.081       .  S
C909        C913   1.483       .  S
Co910      N1253   2.132       .  S
Co910       N926   2.133       .  S
Co910      Cl954   2.502       .  S
N911        C949   1.367       .  A
N911        N918   1.334       .  A
N911      Co1247   2.237   1_554  S
Co912      N1246   2.237       .  S
Co912      N2590   2.104   1_455  S
Co912       N932   2.084       .  S
Co912      N2259   2.218   1_455  S
Co912      Cl954   2.480       .  S
C913        N951   1.358       .  A
N914        N921   1.332       .  A
N914        N944   1.336       .  A
N915        N933   1.320       .  A
N915        N951   1.337       .  A
N915      Co2587   2.103   1_554  S
N916        C945   1.369       .  A
N916        N926   1.333       .  A
H917        C942   1.082       .  S
N918        N939   1.335       .  A
N918      Co1245   2.116   1_554  S
N919        N937   1.329       .  A
N919        N924   1.342       .  A
N919      Co2252   2.226       .  S
C920        N924   1.383       .  A
C920        C948   1.474       .  S
N921        C936   1.357       .  A
N921      Co1278   2.217   1_554  S
C922        N950   1.357       .  A
C922        H956   1.082       .  S
C922        C925   1.471       .  S
C925        N946   1.388       .  A
N926        N932   1.316       .  A
N927        C953   1.349       .  A
N927        N929   1.320       .  A
N927       Co943   2.079       .  S
N928        C942   1.344       .  A
N929        N957   1.341       .  A
H930        C953   1.081       .  S
H931        C948   1.082       .  S
N933      Co1282   2.151   1_554  S
N934        N946   1.350       .  A
N934        N950   1.333       .  A
N934      Co2283   2.257       .  S
C935        N939   1.355       .  A
C935        C949   1.506       .  S
C936        H940   1.082       .  S
C936        C955   1.501       .  S
N937        C948   1.350       .  A
N937       Co947   2.116       .  S
C941        N957   1.367       .  A
C941        C953   1.464       .  S
Co943      N2581   2.062       .  S
Co943      N1256   2.223       .  S
Co943      N2274   2.246       .  S
Co943     Cl1624   2.470   1_565  S
N944        C955   1.361       .  A
Co947      N1268   2.159       .  S
Co947     Cl2294   2.505       .  S
Cl954     Co1613   2.477       .  S
Cl954     Co2287   2.505   1_455  S
C958        C959   1.236       .  T
C960        C961   1.232       .  T
C962        C963   1.192       .  T
C964        C965   1.181       .  T
C966        C967   1.188       .  T
C968        C969   1.187       .  T
C970        C971   1.250       .  T
C972        C973   1.211       .  T
C974        C975   1.209       .  T
C976        C977   1.208       .  T
C978        C979   1.237       .  T
C980        C981   1.229       .  T
C982        C983   1.214       .  T
C984        C985   1.249       .  T
C986        C987   1.182       .  T
C988        C989   1.202       .  T
C990        C991   1.203       .  T
C992        C993   1.251       .  T
C994        C995   1.210       .  T
C996        C997   1.208       .  T
C998        C999   1.211       .  T
C1000      C1001   1.202       .  T
C1002      C1003   1.243       .  T
C1004      C1005   1.212       .  T
C1006      C1007   1.595       .  S
C1006      C1012   1.551       .  S
C1006      C1010   1.553       .  S
C1006      C1270   1.587       .  S
C1007      H1014   1.085       .  S
C1007      C1008   1.400       .  D
C1008      C1009   1.512       .  S
C1008      C1337   1.506       .  S
C1009      C1013   1.510       .  S
C1009      C1011   1.513       .  S
C1009      H1015   1.115       .  S
C1010      H1016   1.086       .  S
C1010      C1011   1.372       .  D
C1011      C1339   1.442       .  S
C1012      H1017   1.086       .  S
C1012      C1013   1.371       .  D
C1013      C1335   1.429       .  S
C1018      C1020   1.539       .  S
C1018      C1022   1.541       .  S
C1018      C1021   1.505       .  S
C1018      C1340   1.475       .  S
C1019      C1023   1.536       .  S
C1019      C1025   1.539       .  S
C1019      C1024   1.509       .  S
C1019      C1334   1.469       .  S
C1020      C1028   1.394       .  A
C1020      C1023   1.417       .  A
C1021      C1032   1.355       .  A
C1021      C1024   1.384       .  A
C1022      C1036   1.381       .  A
C1022      C1025   1.421       .  A
C1023      C1026   1.382       .  A
C1024      C1030   1.359       .  A
C1025      C1033   1.394       .  A
C1026      N1027   1.344       .  A
C1026      H1039   1.083       .  S
N1027      C1028   1.353       .  A
N1027      C1331   1.408       .  S
C1028      H1029   1.082       .  S
C1030      N2371   1.353       .  A
C1030      H2380   1.081       .  S
N1031      C2370   1.350       .  A
N1031      C2372   1.349       .  A
N1031      N2453   1.385       .  S
C1032      N2371   1.348       .  A
C1032      H2378   1.081       .  S
C1033      N1034   1.350       .  A
C1033      H1035   1.083       .  S
N1034      C1036   1.343       .  A
N1034      C1329   1.405       .  S
C1036      H1037   1.084       .  S
H1038      C2372   1.081       .  S
H1040      C2370   1.082       .  S
C1041      C1042   1.602       .  S
C1041      C1047   1.548       .  S
C1041      C1045   1.546       .  S
C1041      C1260   1.580       .  S
C1042      H1049   1.085       .  S
C1042      C1043   1.404       .  D
C1043      C1044   1.512       .  S
C1043      C1328   1.511       .  S
C1044      C1048   1.512       .  S
C1044      C1046   1.515       .  S
C1044      H1050   1.115       .  S
C1045      H1051   1.086       .  S
C1045      C1046   1.367       .  D
C1046      C1333   1.436       .  S
C1047      H1052   1.086       .  S
C1047      C1048   1.369       .  D
C1048      C1325   1.425       .  S
C1053      C1055   1.499       .  S
C1053      C1057   1.543       .  S
C1053      C1056   1.545       .  S
C1053      C1338   1.546       .  S
C1054      C1058   1.539       .  S
C1054      C1060   1.546       .  S
C1054      C1059   1.513       .  S
C1054      C1319   1.549       .  S
C1055      C1063   1.360       .  A
C1055      C1058   1.411       .  A
C1056      C1067   1.379       .  A
C1056      C1059   1.428       .  A
C1057      C1071   1.368       .  A
C1057      C1060   1.445       .  A
C1058      C1061   1.378       .  A
C1059      C1065   1.346       .  A
C1060      C1068   1.388       .  A
C1061      N1062   1.351       .  A
C1061      H1074   1.083       .  S
N1062      C1063   1.338       .  A
N1062      C1321   1.372       .  S
C1063      H1064   1.084       .  S
C1068      N1069   1.350       .  A
C1068      H1070   1.083       .  S
N1069      C1071   1.338       .  A
N1069      C1323   1.397       .  S
C1071      H1072   1.085       .  S
C1076      C1077   1.586       .  S
C1076      C1082   1.551       .  S
C1076      C1080   1.558       .  S
C1076      C1248   1.578       .  S
C1077      H1084   1.085       .  S
C1077      C1078   1.394       .  D
C1078      C1079   1.510       .  S
C1078      C1316   1.490       .  S
C1079      C1083   1.509       .  S
C1079      C1081   1.510       .  S
C1079      H1085   1.116       .  S
C1080      H1086   1.086       .  S
C1080      C1081   1.373       .  D
C1081      C1318   1.445       .  S
C1082      H1087   1.086       .  S
C1082      C1083   1.370       .  D
C1083      C1324   1.427       .  S
C1088      C1089   1.553       .  S
C1088      C1094   1.592       .  S
C1088      C1092   1.516       .  S
C1088      C1280   1.548       .  S
C1089      H1096   1.085       .  S
C1089      C1090   1.373       .  D
C1090      C1091   1.525       .  S
C1090      C1330   1.442       .  S
C1091      C1095   1.522       .  S
C1091      C1093   1.532       .  S
C1091      H1097   1.113       .  S
C1092      H1098   1.088       .  S
C1092      C1093   1.325       .  D
C1093      C1322   1.409       .  S
C1094      H1099   1.085       .  S
C1094      C1095   1.402       .  D
C1095      C1314   1.499       .  S
C1100      C1102   1.537       .  S
C1100      C1104   1.534       .  S
C1100      C1103   1.502       .  S
C1100      C1307   1.479       .  S
C1101      C1105   1.540       .  S
C1101      C1107   1.540       .  S
C1101      C1106   1.502       .  S
C1101      C1317   1.479       .  S
C1102      C1110   1.389       .  A
C1102      C1105   1.426       .  A
C1103      C2454   1.352       .  A
C1103      C1106   1.379       .  A
C1104      C1118   1.376       .  A
C1104      C1107   1.423       .  A
C1105      C1108   1.379       .  A
C1106      C2452   1.354       .  A
C1107      C1115   1.392       .  A
C1108      N1109   1.341       .  A
C1108      H1121   1.084       .  S
N1109      C1110   1.348       .  A
N1109      C1312   1.400       .  S
C1110      H1111   1.083       .  S
C1112      C2446   1.354       .  A
C1112      N1113   1.355       .  A
C1112      H1122   1.081       .  S
N1113      C1114   1.351       .  A
N1113      N2371   1.391   1_655  S
C1114      C2443   1.355       .  A
C1114      H1120   1.081       .  S
C1115      N1116   1.351       .  A
C1115      H1117   1.083       .  S
N1116      C1118   1.340       .  A
N1116      C1309   1.401       .  S
C1118      H1119   1.084       .  S
C1123      C1124   1.524       .  S
C1123      C1129   1.548       .  S
C1123      C1127   1.605       .  S
C1123      C1290   1.559       .  S
C1124      H1131   1.088       .  S
C1124      C1125   1.341       .  D
C1125      C1126   1.526       .  S
C1125      C1303   1.417       .  S
C1126      C1130   1.518       .  S
C1126      C1128   1.516       .  S
C1126      H1132   1.114       .  S
C1127      H1133   1.085       .  S
C1127      C1128   1.411       .  D
C1128      C1305   1.512       .  S
C1129      H1134   1.086       .  S
C1129      C1130   1.368       .  D
C1130      C1311   1.434       .  S
C1135      C1136   1.519       .  S
C1135      C1141   1.546       .  S
C1135      C1139   1.604       .  S
C1135      C1255   1.550       .  S
C1136      H1143   1.088       .  S
C1136      C1137   1.335       .  D
C1137      C1138   1.531       .  S
C1137      C1301   1.411       .  S
C1138      C1142   1.521       .  S
C1138      C1140   1.517       .  S
C1138      H1144   1.114       .  S
C1139      H1145   1.085       .  S
C1139      C1140   1.410       .  D
C1140      C1320   1.511       .  S
C1141      H1146   1.086       .  S
C1141      C1142   1.366       .  D
C1142      C1310   1.438       .  S
C1147      C1149   1.504       .  S
C1147      C1151   1.542       .  S
C1147      C1150   1.542       .  S
C1147      C1327   1.552       .  S
C1148      C1152   1.535       .  S
C1148      C1154   1.544       .  S
C1148      C1153   1.515       .  S
C1148      C1306   1.551       .  S
C1149      C1157   1.359       .  A
C1149      C1152   1.412       .  A
C1150      C1153   1.431       .  A
C1151      C1165   1.366       .  A
C1151      C1154   1.446       .  A
C1152      C1155   1.374       .  A
C1154      C1162   1.382       .  A
C1155      N1156   1.349       .  A
C1155      H1168   1.083       .  S
N1156      C1157   1.339       .  A
N1156      C1300   1.372       .  S
C1157      H1158   1.084       .  S
C1159      N1160   1.321       .  A
C1159      H1169   1.083       .  S
N1160      C1161   1.345       .  A
C1161      H1167   1.083       .  S
C1162      N1163   1.348       .  A
C1162      H1164   1.084       .  S
N1163      C1165   1.338       .  A
N1163      C1297   1.390       .  S
C1165      H1166   1.085       .  S
C1170      C1171   1.521       .  S
C1170      C1176   1.558       .  S
C1170      C1174   1.582       .  S
C1170      C1240   1.542       .  S
C1171      H1178   1.086       .  S
C1171      C1172   1.327       .  D
C1172      C1173   1.527       .  S
C1172      C1299   1.407       .  S
C1173      C1177   1.523       .  S
C1173      C1175   1.518       .  S
C1173      H1179   1.114       .  S
C1174      C1175   1.394       .  D
C1175      C1295   1.485       .  S
C1176      H1181   1.085       .  S
C1176      C1177   1.379       .  D
C1177      C1332   1.446       .  S
C1182      C1183   1.586       .  S
C1182      C1188   1.543       .  S
C1182      C1186   1.562       .  S
C1182      C1276   1.567       .  S
C1183      H1190   1.085       .  S
C1183      C1184   1.394       .  D
C1184      C1185   1.506       .  S
C1184      C1294   1.485       .  S
C1185      C1189   1.508       .  S
C1185      C1187   1.507       .  S
C1185      H1191   1.116       .  S
C1186      H1192   1.085       .  S
C1186      C1187   1.372       .  D
C1187      C1308   1.444       .  S
C1188      H1193   1.086       .  S
C1188      C1189   1.364       .  D
C1189      C1298   1.414       .  S
C1194      C1196   1.509       .  S
C1194      C1198   1.549       .  S
C1194      C1197   1.538       .  S
C1194      C1315   1.529       .  S
C1195      C1199   1.526       .  S
C1195      C1201   1.543       .  S
C1195      C1200   1.514       .  S
C1195      C1296   1.521       .  S
C1196      C1204   1.369       .  A
C1196      C1199   1.396       .  A
C1197      C1200   1.421       .  A
C1198      C1212   1.372       .  A
C1198      C1201   1.445       .  A
C1199      C1202   1.373       .  A
C1201      C1209   1.388       .  A
C1202      N1203   1.349       .  A
C1202      H1215   1.083       .  S
N1203      C1204   1.347       .  A
N1203      C1304   1.382       .  S
C1204      H1205   1.083       .  S
C1206      N1207   1.326   1_554  A
C1206      H1216   1.083       .  S
N1207      C1208   1.345       .  A
N1207      N1230   1.371       .  S
C1208      H1214   1.083       .  S
C1209      N1210   1.349       .  A
C1209      H1211   1.084       .  S
N1210      C1212   1.340       .  A
N1210      C1336   1.398       .  S
C1212      H1213   1.085       .  S
C1217      C1219   1.510       .  S
C1217      C1221   1.540       .  S
C1217      C1220   1.536       .  S
C1217      C1293   1.528       .  S
C1218      C1222   1.535       .  S
C1218      C1224   1.545       .  S
C1218      C1223   1.507       .  S
C1218      C1313   1.533       .  S
C1219      C1227   1.370       .  A
C1219      C1222   1.419       .  A
C1220      C1231   1.373       .  A
C1220      C1223   1.422       .  A
C1221      C1235   1.371       .  A
C1221      C1224   1.443       .  A
C1222      C1225   1.379       .  A
C1223      C1229   1.349       .  A
C1224      C1232   1.388       .  A
C1225      N1226   1.342       .  A
C1225      H1238   1.083       .  S
N1226      C1227   1.337       .  A
N1226      C1302   1.376       .  S
C1227      H1228   1.083       .  S
C1229      N1230   1.317       .  A
C1229      H1239   1.082       .  S
N1230      C1231   1.347       .  A
C1231      H1237   1.083       .  S
C1232      N1233   1.349       .  A
C1232      H1234   1.083       .  S
N1233      C1235   1.338       .  A
N1233      C1326   1.397       .  S
C1235      H1236   1.085       .  S
C1240      N1258   1.353       .  A
C1240      C1277   1.485       .  S
N1241      N1258   1.333       .  A
N1241      N1263   1.316       .  A
N1241     Co2283   2.068       .  S
C1242      N1267   1.351       .  A
C1242      H1287   1.081       .  S
C1242      C1280   1.470       .  S
H1243      C1284   1.081       .  S
C1244      N1268   1.364       .  A
C1244      H1273   1.081       .  S
C1244      C1248   1.486       .  S
Co1245     N1261   2.128       .  S
Co1245    Cl1289   2.499       .  S
N1246      C1284   1.367       .  A
N1246      N1253   1.335       .  A
Co1247     N2255   2.097   1_456  S
Co1247     N1267   2.083       .  S
Co1247     N2594   2.227   1_455  S
Co1247    Cl1289   2.483       .  S
C1248      N1286   1.360       .  A
N1249      N1256   1.331       .  A
N1249      N1279   1.334       .  A
N1250      N1268   1.321       .  A
N1250      N1286   1.339       .  A
N1250     Co2252   2.109       .  S
N1251      C1280   1.369       .  A
N1251      N1261   1.331       .  A
H1252      C1277   1.082       .  S
N1253      N1274   1.339       .  A
N1254      N1272   1.329       .  A
N1254      N1259   1.337       .  A
N1254     Co2587   2.211       .  S
C1255      N1259   1.379       .  A
C1255      C1283   1.472       .  S
N1256      C1271   1.359       .  A
C1257      N1285   1.352       .  A
C1257      H1291   1.082       .  S
C1257      C1260   1.464       .  S
C1260      N1281   1.385       .  A
N1261      N1267   1.316       .  A
N1262      C1288   1.352       .  A
N1262      N1264   1.322       .  A
N1262     Co1278   2.098       .  S
N1263      C1277   1.343       .  A
N1264      N1292   1.342       .  A
H1265      C1288   1.081       .  S
H1266      C1283   1.082       .  S
N1269      N1281   1.346       .  A
N1269      N1285   1.332       .  A
N1269     Co2618   2.245       .  S
C1270      N1274   1.359       .  A
C1270      C1284   1.506       .  S
C1271      H1275   1.082       .  S
C1271      C1290   1.505       .  S
N1272      C1283   1.350       .  A
N1272     Co1282   2.107       .  S
C1276      N1292   1.367       .  A
C1276      C1288   1.468       .  S
Co1278     N2246   2.073       .  S
Co1278     N2609   2.248       .  S
Co1278    Cl1959   2.474   1_565  S
N1279      C1290   1.358       .  A
Co1282    Cl2629   2.512       .  S
Cl1289    Co1948   2.477       .  S
Cl1289    Co2622   2.506   1_455  S
C1293      C1294   1.236       .  T
C1295      C1296   1.234       .  T
C1297      C1298   1.194       .  T
C1299      C1300   1.181       .  T
C1301      C1302   1.182       .  T
C1303      C1304   1.189       .  T
C1305      C1306   1.251       .  T
C1307      C1308   1.210       .  T
C1309      C1310   1.205       .  T
C1311      C1312   1.203       .  T
C1313      C1314   1.242       .  T
C1315      C1316   1.238       .  T
C1317      C1318   1.210       .  T
C1319      C1320   1.250       .  T
C1321      C1322   1.182       .  T
C1323      C1324   1.201       .  T
C1325      C1326   1.200       .  T
C1327      C1328   1.250       .  T
C1329      C1330   1.208       .  T
C1331      C1332   1.211       .  T
C1333      C1334   1.204       .  T
C1335      C1336   1.202       .  T
C1337      C1338   1.247       .  T
C1339      C1340   1.208       .  T
C1341      C1342   1.595       .  S
C1341      C1347   1.548       .  S
C1341      C1345   1.549       .  S
C1341      C1605   1.578       .  S
C1342      H1349   1.085       .  S
C1342      C1343   1.400       .  D
C1343      C1344   1.515       .  S
C1343      C1672   1.504       .  S
C1344      C1348   1.512       .  S
C1344      C1346   1.515       .  S
C1344      H1350   1.115       .  S
C1345      H1351   1.086       .  S
C1345      C1346   1.369       .  D
C1346      C1674   1.438       .  S
C1347      H1352   1.086       .  S
C1347      C1348   1.369       .  D
C1348      C1670   1.428       .  S
C1353      C1355   1.536       .  S
C1353      C1357   1.540       .  S
C1353      C1356   1.505       .  S
C1353      C1675   1.472       .  S
C1354      C1358   1.538       .  S
C1354      C1360   1.546       .  S
C1354      C1359   1.504       .  S
C1354      C1669   1.479       .  S
C1355      C1363   1.393       .  A
C1355      C1358   1.415       .  A
C1356      C1367   1.353       .  A
C1356      C1359   1.380       .  A
C1357      C1371   1.381       .  A
C1357      C1360   1.426       .  A
C1358      C1361   1.381       .  A
C1359      C1365   1.355       .  A
C1360      C1368   1.397       .  A
C1361      N1362   1.344       .  A
C1361      H1374   1.083       .  S
N1362      C1363   1.352       .  A
N1362      C1666   1.406       .  S
C1363      H1364   1.083       .  S
C1368      N1369   1.353       .  A
C1368      H1370   1.083       .  S
N1369      C1371   1.342       .  A
N1369      C1664   1.409       .  S
C1371      H1372   1.084       .  S
C1376      C1377   1.603       .  S
C1376      C1382   1.556       .  S
C1376      C1380   1.553       .  S
C1376      C1595   1.603       .  S
C1377      H1384   1.085       .  S
C1377      C1378   1.405       .  D
C1378      C1379   1.511       .  S
C1378      C1663   1.514       .  S
C1379      C1383   1.509       .  S
C1379      C1381   1.514       .  S
C1379      H1385   1.115       .  S
C1380      H1386   1.086       .  S
C1380      C1381   1.373       .  D
C1381      C1668   1.445       .  S
C1382      H1387   1.086       .  S
C1382      C1383   1.375       .  D
C1383      C1660   1.431       .  S
C1388      C1390   1.505       .  S
C1388      C1392   1.542       .  S
C1388      C1391   1.545       .  S
C1388      C1673   1.544       .  S
C1389      C1393   1.529       .  S
C1389      C1395   1.543       .  S
C1389      C1394   1.520       .  S
C1389      C1654   1.543       .  S
C1390      C1398   1.364       .  A
C1390      C1393   1.402       .  A
C1391      C1402   1.377       .  A
C1391      C1394   1.433       .  A
C1392      C1406   1.369       .  A
C1392      C1395   1.443       .  A
C1393      C1396   1.371       .  A
C1394      C1400   1.350       .  A
C1395      C1403   1.384       .  A
C1396      N1397   1.349       .  A
C1396      H1409   1.083       .  S
N1397      C1398   1.345       .  A
N1397      C1656   1.374       .  S
C1398      H1399   1.083       .  S
C1400      N2071   1.321       .  A
C1400      H2080   1.083       .  S
N1401      C2070   1.323       .  A
N1401      C2072   1.348       .  A
N1401      N2165   1.376       .  S
C1402      N2071   1.349       .  A
C1402      H2078   1.083       .  S
C1403      N1404   1.349       .  A
C1403      H1405   1.084       .  S
N1404      C1406   1.338       .  A
N1404      C1658   1.393       .  S
C1406      H1407   1.085       .  S
H1408      C2072   1.083       .  S
H1410      C2070   1.083       .  S
C1411      C1412   1.575       .  S
C1411      C1417   1.549       .  S
C1411      C1415   1.559       .  S
C1411      C1583   1.563       .  S
C1412      H1419   1.085       .  S
C1412      C1413   1.388       .  D
C1413      C1414   1.514       .  S
C1413      C1651   1.478       .  S
C1414      C1418   1.508       .  S
C1414      C1416   1.514       .  S
C1414      H1420   1.115       .  S
C1415      H1421   1.086       .  S
C1415      C1416   1.373       .  D
C1416      C1653   1.453       .  S
C1417      H1422   1.086       .  S
C1417      C1418   1.368       .  D
C1418      C1659   1.421       .  S
C1423      C1424   1.557       .  S
C1423      C1429   1.580       .  S
C1423      C1427   1.520       .  S
C1423      C1615   1.541       .  S
C1424      H1431   1.085       .  S
C1424      C1425   1.379       .  D
C1425      C1426   1.524       .  S
C1425      C1665   1.447       .  S
C1426      C1430   1.519       .  S
C1426      C1428   1.529       .  S
C1426      H1432   1.114       .  S
C1427      H1433   1.088       .  S
C1427      C1428   1.325       .  D
C1428      C1657   1.411       .  S
C1429      H1434   1.085       .  S
C1429      C1430   1.394       .  D
C1430      C1649   1.482       .  S
C1435      C1437   1.537       .  S
C1435      C1439   1.539       .  S
C1435      C1438   1.506       .  S
C1435      C1642   1.482       .  S
C1436      C1440   1.533       .  S
C1436      C1442   1.542       .  S
C1436      C1441   1.509       .  S
C1436      C1652   1.486       .  S
C1437      C1445   1.392       .  A
C1437      C1440   1.415       .  A
C1438      C1441   1.381       .  A
C1439      C1453   1.378       .  A
C1439      C1442   1.430       .  A
C1440      C1443   1.376       .  A
C1442      C1450   1.391       .  A
C1443      N1444   1.342       .  A
C1443      H1456   1.083       .  S
N1444      C1445   1.353       .  A
N1444      C1647   1.402       .  S
C1445      H1446   1.083       .  S
C1447      N1448   1.351       .  A
C1447      H1457   1.081       .  S
N1448      C1449   1.351       .  A
C1449      H1455   1.081       .  S
C1450      N1451   1.350       .  A
C1450      H1452   1.083       .  S
N1451      C1453   1.340       .  A
N1451      C1644   1.400       .  S
C1453      H1454   1.084       .  S
C1458      C1459   1.519       .  S
C1458      C1464   1.548       .  S
C1458      C1462   1.604       .  S
C1458      C1625   1.557       .  S
C1459      H1466   1.088       .  S
C1459      C1460   1.338       .  D
C1460      C1461   1.531       .  S
C1460      C1638   1.414       .  S
C1461      C1465   1.523       .  S
C1461      C1463   1.518       .  S
C1461      H1467   1.114       .  S
C1462      H1468   1.085       .  S
C1462      C1463   1.412       .  D
C1463      C1640   1.512       .  S
C1464      H1469   1.086       .  S
C1464      C1465   1.367       .  D
C1465      C1646   1.441       .  S
C1470      C1471   1.524       .  S
C1470      C1476   1.547       .  S
C1470      C1474   1.597       .  S
C1470      C1590   1.551       .  S
C1471      H1478   1.088       .  S
C1471      C1472   1.341       .  D
C1472      C1473   1.531       .  S
C1472      C1636   1.420       .  S
C1473      C1477   1.519       .  S
C1473      C1475   1.520       .  S
C1473      H1479   1.114       .  S
C1474      H1480   1.085       .  S
C1474      C1475   1.405       .  D
C1475      C1655   1.506       .  S
C1476      H1481   1.086       .  S
C1476      C1477   1.370       .  D
C1477      C1645   1.435       .  S
C1482      C1484   1.503       .  S
C1482      C1486   1.541       .  S
C1482      C1485   1.543       .  S
C1482      C1662   1.554       .  S
C1483      C1487   1.535       .  S
C1483      C1489   1.545       .  S
C1483      C1488   1.512       .  S
C1483      C1641   1.550       .  S
C1484      C1492   1.359       .  A
C1484      C1487   1.416       .  A
C1485      C2166   1.376       .  A
C1485      C1488   1.430       .  A
C1486      C1500   1.364       .  A
C1486      C1489   1.446       .  A
C1487      C1490   1.375       .  A
C1488      C2164   1.350       .  A
C1489      C1497   1.385       .  A
C1490      N1491   1.347       .  A
C1490      H1503   1.083       .  S
N1491      C1492   1.337       .  A
N1491      C1635   1.370       .  S
C1492      H1493   1.084       .  S
C1494      C2158   1.349       .  A
C1494      N1495   1.319       .  A
C1494      H1504   1.083       .  S
N1495      C1496   1.351       .  A
N1495      N2071   1.379   1_565  S
C1496      C2155   1.377       .  A
C1496      H1502   1.082       .  S
C1497      N1498   1.349       .  A
C1497      H1499   1.084       .  S
N1498      C1500   1.337       .  A
N1498      C1632   1.390       .  S
C1500      H1501   1.085       .  S
C1505      C1506   1.520       .  S
C1505      C1511   1.556       .  S
C1505      C1509   1.585       .  S
C1505      C1575   1.541       .  S
C1506      H1513   1.086       .  S
C1506      C1507   1.328       .  D
C1507      C1508   1.526       .  S
C1507      C1634   1.405       .  S
C1508      C1512   1.523       .  S
C1508      C1510   1.516       .  S
C1508      H1514   1.114       .  S
C1509      H1850   1.085       .  S
C1509      C1510   1.396       .  D
C1510      C1630   1.484       .  S
C1511      H1516   1.085       .  S
C1511      C1512   1.374       .  D
C1512      C1667   1.444       .  S
H1515      C1844   1.085       .  S
C1517      C1518   1.585       .  S
C1517      C1523   1.541       .  S
C1517      C1521   1.561       .  S
C1517      C1611   1.566       .  S
C1518      H1525   1.085       .  S
C1518      C1519   1.394       .  D
C1519      C1520   1.511       .  S
C1519      C1629   1.488       .  S
C1520      C1524   1.511       .  S
C1520      C1522   1.511       .  S
C1520      H1526   1.116       .  S
C1521      H1527   1.085       .  S
C1521      C1522   1.372       .  D
C1522      C1643   1.448       .  S
C1523      H1528   1.086       .  S
C1523      C1524   1.363       .  D
C1524      C1633   1.416       .  S
C1529      C1531   1.505       .  S
C1529      C1533   1.541       .  S
C1529      C1532   1.535       .  S
C1529      C1650   1.517       .  S
C1530      C1534   1.531       .  S
C1530      C1536   1.543       .  S
C1530      C1535   1.510       .  S
C1530      C1631   1.519       .  S
C1531      C1539   1.367       .  A
C1531      C1534   1.404       .  A
C1532      C1878   1.372   1_554  A
C1532      C1535   1.420       .  A
C1533      C1547   1.372       .  A
C1533      C1536   1.441       .  A
C1534      C1537   1.378       .  A
C1535      C1876   1.348       .  A
C1536      C1544   1.389       .  A
C1537      N1538   1.347       .  A
C1537      H1550   1.083       .  S
N1538      C1539   1.341       .  A
N1538      C1639   1.379       .  S
C1539      H1540   1.083       .  S
C1541      C1870   1.349       .  A
C1541      N1542   1.324       .  A
C1541      H1551   1.083       .  S
N1542      C1543   1.354       .  A
N1542      N1565   1.377       .  S
C1543      C1867   1.369       .  A
C1543      H1549   1.082       .  S
C1544      N1545   1.350       .  A
C1544      H1546   1.084       .  S
N1545      C1547   1.339       .  A
N1545      C1671   1.397       .  S
C1547      H1548   1.085       .  S
C1552      C1554   1.516       .  S
C1552      C1556   1.550       .  S
C1552      C1555   1.539       .  S
C1552      C1628   1.527       .  S
C1553      C1557   1.519       .  S
C1553      C1559   1.542       .  S
C1553      C1558   1.514       .  S
C1553      C1648   1.516       .  S
C1554      C1562   1.376       .  A
C1554      C1557   1.395       .  A
C1555      C1566   1.366       .  A
C1555      C1558   1.420       .  A
C1556      C1570   1.375       .  A
C1556      C1559   1.444       .  A
C1557      C1560   1.369       .  A
C1558      C1564   1.352       .  A
C1559      C1567   1.387       .  A
C1560      N1561   1.345       .  A
C1560      H1573   1.083       .  S
N1561      C1562   1.350       .  A
N1561      C1637   1.382       .  S
C1562      H1563   1.083       .  S
C1564      N1565   1.325       .  A
C1564      H1574   1.083       .  S
N1565      C1566   1.350       .  A
C1566      H1572   1.083       .  S
C1567      N1568   1.349       .  A
C1567      H1569   1.084       .  S
N1568      C1570   1.341       .  A
N1568      C1661   1.401       .  S
C1570      H1571   1.085       .  S
C1575      N1593   1.352       .  A
C1575      C1612   1.487       .  S
N1576      N1593   1.332   1_556  A
N1576      N1598   1.317       .  A
C1577      N1602   1.354       .  A
C1577      H1622   1.081       .  S
C1577      C1615   1.469       .  S
H1578      C1619   1.081       .  S
C1579      N1603   1.360       .  A
C1579      H1608   1.081       .  S
C1579      C1583   1.481       .  S
Co1580     N2603   2.120   1_545  S
Co1580     N1923   2.139       .  S
Co1580     N2290   2.132   1_545  S
Co1580     N1596   2.112       .  S
Co1580    Cl1624   2.500       .  S
N1581      C1619   1.366       .  A
N1581      N1588   1.334       .  A
N1581     Co1917   2.238   1_554  S
Co1582     N1916   2.247       .  S
Co1582     N1602   2.081       .  S
Co1582    Cl1624   2.477       .  S
C1583      N1621   1.356       .  A
N1584      N1591   1.330       .  A
N1584      N1614   1.336       .  A
N1584     Co2622   2.115   1_554  S
N1585      N1603   1.322       .  A
N1585      N1621   1.336       .  A
N1586      C1615   1.364       .  A
N1586      N1596   1.326       .  A
H1587      C1612   1.082       .  S
N1588      N1609   1.336       .  A
N1588     Co1915   2.116   1_554  S
N1589      N1607   1.330       .  A
N1589      N1594   1.339       .  A
C1590      N1594   1.380       .  A
C1590      C1618   1.470       .  S
N1591      C1606   1.355       .  A
N1591     Co1948   2.207   1_654  S
C1592      N1620   1.360       .  A
C1592      H1626   1.082       .  S
C1592      C1595   1.475       .  S
C1595      N1616   1.387       .  A
N1596      N1602   1.315       .  A
N1597      C1623   1.352       .  A
N1597      N1599   1.321       .  A
N1597     Co1613   2.096   1_655  S
N1598      C1612   1.345   1_556  A
N1598     Co2585   2.125       .  S
N1599      N1627   1.342       .  A
N1599     Co2287   2.151       .  S
H1600      C1623   1.081       .  S
H1601      C1618   1.082       .  S
N1603     Co1952   2.148   1_554  S
N1604      N1616   1.350       .  A
N1604      N1620   1.333       .  A
C1605      N1609   1.355       .  A
C1605      C1619   1.507       .  S
C1606      H1610   1.082       .  S
C1606      C1625   1.500       .  S
N1607      C1618   1.347       .  A
N1607     Co1617   2.105       .  S
C1611      N1627   1.367       .  A
C1611      C1623   1.469       .  S
Co1613     N1926   2.225   1_455  S
N1614      C1625   1.361       .  A
Co1617     N2589   2.114   1_545  S
Co1617     N2269   2.156   1_545  S
Co1617     N1938   2.156       .  S
N1620     Co2250   2.142       .  S
C1628      C1629   1.236       .  T
C1630      C1631   1.234       .  T
C1632      C1633   1.195       .  T
C1634      C1635   1.180       .  T
C1636      C1637   1.189       .  T
C1638      C1639   1.186       .  T
C1640      C1641   1.251       .  T
C1642      C1643   1.212       .  T
C1644      C1645   1.204       .  T
C1646      C1647   1.206       .  T
C1648      C1649   1.232       .  T
C1650      C1651   1.230       .  T
C1652      C1653   1.214       .  T
C1654      C1655   1.247       .  T
C1656      C1657   1.183       .  T
C1658      C1659   1.198       .  T
C1660      C1661   1.204       .  T
C1662      C1663   1.252       .  T
C1664      C1665   1.212       .  T
C1666      C1667   1.209       .  T
C1668      C1669   1.210       .  T
C1670      C1671   1.201       .  T
C1672      C1673   1.246       .  T
C1674      C1675   1.206       .  T
C1676      C1677   1.601       .  S
C1676      C1682   1.554       .  S
C1676      C1680   1.551       .  S
C1676      C1940   1.595       .  S
C1677      H1684   1.085       .  S
C1677      C1678   1.405       .  D
C1678      C1679   1.511       .  S
C1678      C2007   1.511       .  S
C1679      C1683   1.510       .  S
C1679      C1681   1.511       .  S
C1679      H1685   1.116       .  S
C1680      H1686   1.086       .  S
C1680      C1681   1.369       .  D
C1681      C2009   1.437       .  S
C1682      H1687   1.086       .  S
C1682      C1683   1.374       .  D
C1683      C2005   1.433       .  S
C1688      C1690   1.534       .  S
C1688      C1692   1.536       .  S
C1688      C1691   1.510       .  S
C1688      C2010   1.471       .  S
C1689      C1693   1.536       .  S
C1689      C1695   1.541       .  S
C1689      C1694   1.509       .  S
C1689      C2004   1.474       .  S
C1690      C1698   1.392       .  A
C1690      C1693   1.418       .  A
C1691      C1702   1.361       .  A
C1691      C1694   1.396       .  A
C1692      C1706   1.380       .  A
C1692      C1695   1.415       .  A
C1693      C1696   1.380       .  A
C1694      C1700   1.360       .  A
C1695      C1703   1.396       .  A
C1696      N1697   1.342       .  A
C1696      H1709   1.084       .  S
N1697      C1698   1.350       .  A
N1697      C2001   1.404       .  S
C1698      H1699   1.083       .  S
C1703      N1704   1.353       .  A
C1703      H1705   1.083       .  S
N1704      C1706   1.342       .  A
N1704      C1999   1.407       .  S
C1706      H1707   1.083       .  S
C1711      C1712   1.604       .  S
C1711      C1717   1.550       .  S
C1711      C1715   1.549       .  S
C1711      C1930   1.590       .  S
C1712      H1719   1.085       .  S
C1712      C1713   1.405       .  D
C1713      C1714   1.512       .  S
C1713      C1998   1.516       .  S
C1714      C1718   1.511       .  S
C1714      C1716   1.514       .  S
C1714      H1720   1.115       .  S
C1715      H1721   1.086       .  S
C1715      C1716   1.371       .  D
C1716      C2003   1.438       .  S
C1717      H1722   1.086       .  S
C1717      C1718   1.370       .  D
C1718      C1995   1.426       .  S
C1723      C1725   1.505       .  S
C1723      C1727   1.545       .  S
C1723      C1726   1.539       .  S
C1723      C2008   1.551       .  S
C1724      C1728   1.535       .  S
C1724      C1730   1.544       .  S
C1724      C1729   1.514       .  S
C1724      C1989   1.546       .  S
C1725      C1733   1.359       .  A
C1725      C1728   1.411       .  A
C1726      C1737   1.376       .  A
C1726      C1729   1.428       .  A
C1727      C1741   1.366       .  A
C1727      C1730   1.446       .  A
C1728      C1731   1.376       .  A
C1729      C1735   1.350       .  A
C1730      C1738   1.385       .  A
C1731      N1732   1.350       .  A
C1731      H1744   1.083       .  S
N1732      C1733   1.340       .  A
N1732      C1991   1.375       .  S
C1733      H1734   1.083       .  S
C1735      N2406   1.322       .  A
C1735      H2415   1.083       .  S
N1736      C2405   1.318       .  A
N1736      C2407   1.352       .  A
N1736      N2500   1.380       .  S
C1737      N2406   1.347       .  A
C1737      H2413   1.083       .  S
C1738      N1739   1.349       .  A
C1738      H1740   1.084       .  S
N1739      C1741   1.339       .  A
N1739      C1993   1.392       .  S
C1741      H1742   1.085       .  S
H1743      C2407   1.082       .  S
H1745      C2405   1.083       .  S
C1746      C1747   1.583       .  S
C1746      C1752   1.545       .  S
C1746      C1750   1.557       .  S
C1746      C1918   1.568       .  S
C1747      H1754   1.085       .  S
C1747      C1748   1.393       .  D
C1748      C1749   1.513       .  S
C1748      C1986   1.490       .  S
C1749      C1753   1.510       .  S
C1749      C1751   1.513       .  S
C1749      H1755   1.115       .  S
C1750      H1756   1.086       .  S
C1750      C1751   1.372       .  D
C1751      C1988   1.445       .  S
C1752      H1757   1.086       .  S
C1752      C1753   1.366       .  D
C1753      C1994   1.421       .  S
C1758      C1759   1.553       .  S
C1758      C1764   1.588       .  S
C1758      C1762   1.522       .  S
C1758      C1950   1.546       .  S
C1759      H1766   1.085       .  S
C1759      C1760   1.374       .  D
C1760      C1761   1.525       .  S
C1760      C2000   1.446       .  S
C1761      C1765   1.518       .  S
C1761      C1763   1.529       .  S
C1761      H1767   1.114       .  S
C1762      H1768   1.088       .  S
C1762      C1763   1.331       .  D
C1763      C1992   1.412       .  S
C1764      H1769   1.085       .  S
C1764      C1765   1.398       .  D
C1765      C1984   1.491       .  S
C1770      C1772   1.541       .  S
C1770      C1774   1.529       .  S
C1770      C1773   1.506       .  S
C1770      C1977   1.480       .  S
C1771      C1775   1.544       .  S
C1771      C1777   1.537       .  S
C1771      C1776   1.506       .  S
C1771      C1987   1.478       .  S
C1772      C1780   1.391       .  A
C1772      C1775   1.432       .  A
C1773      C1776   1.377       .  A
C1774      C1788   1.374       .  A
C1774      C1777   1.411       .  A
C1775      C1778   1.380       .  A
C1777      C1785   1.392       .  A
C1778      N1779   1.341       .  A
C1778      H1791   1.084       .  S
N1779      C1780   1.349       .  A
N1779      C1982   1.403       .  S
C1780      H1781   1.083       .  S
C1782      N1783   1.353       .  A
C1782      H1792   1.082       .  S
N1783      C1784   1.354       .  A
C1784      H1790   1.081       .  S
C1785      N1786   1.354       .  A
C1785      H1787   1.082       .  S
N1786      C1788   1.342       .  A
N1786      C1979   1.401       .  S
C1788      H1789   1.083       .  S
C1793      C1794   1.521       .  S
C1793      C1799   1.550       .  S
C1793      C1797   1.602       .  S
C1793      C1960   1.557       .  S
C1794      H1801   1.088       .  S
C1794      C1795   1.337       .  D
C1795      C1796   1.531       .  S
C1795      C1973   1.417       .  S
C1796      C1800   1.519       .  S
C1796      C1798   1.519       .  S
C1796      H1802   1.114       .  S
C1797      H1803   1.085       .  S
C1797      C1798   1.409       .  D
C1798      C1975   1.511       .  S
C1799      H1804   1.086       .  S
C1799      C1800   1.372       .  D
C1800      C1981   1.439       .  S
C1805      C1806   1.520       .  S
C1805      C1811   1.545       .  S
C1805      C1809   1.602       .  S
C1805      C1925   1.547       .  S
C1806      H1813   1.088       .  S
C1806      C1807   1.338       .  D
C1807      C1808   1.529       .  S
C1807      C1971   1.413       .  S
C1808      C1812   1.523       .  S
C1808      C1810   1.518       .  S
C1808      H1814   1.114       .  S
C1809      H1815   1.085       .  S
C1809      C1810   1.409       .  D
C1810      C1990   1.507       .  S
C1811      H1816   1.086       .  S
C1811      C1812   1.365       .  D
C1812      C1980   1.439       .  S
C1817      C1819   1.500       .  S
C1817      C1821   1.549       .  S
C1817      C1820   1.553       .  S
C1817      C1997   1.556       .  S
C1818      C1822   1.536       .  S
C1818      C1824   1.541       .  S
C1818      C1823   1.514       .  S
C1818      C1976   1.550       .  S
C1819      C1827   1.363       .  A
C1819      C1822   1.410       .  A
C1820      C2501   1.380       .  A
C1820      C1823   1.429       .  A
C1821      C1835   1.370       .  A
C1821      C1824   1.448       .  A
C1822      C1825   1.375       .  A
C1823      C2499   1.346       .  A
C1824      C1832   1.383       .  A
C1825      N1826   1.350       .  A
C1825      H1838   1.083       .  S
N1826      C1827   1.338       .  A
N1826      C1970   1.373       .  S
C1827      H1828   1.084       .  S
C1829      C2493   1.350       .  A
C1829      N1830   1.321       .  A
C1829      H1839   1.083       .  S
N1830      C1831   1.348       .  A
N1830      N2406   1.376   1_565  S
C1831      C2490   1.377       .  A
C1831      H1837   1.083       .  S
C1832      N1833   1.347       .  A
C1832      H1834   1.083       .  S
N1833      C1835   1.340       .  A
N1833      C1967   1.395       .  S
C1835      H1836   1.085       .  S
C1840      C1841   1.521       .  S
C1840      C1846   1.555       .  S
C1840      C1844   1.582       .  S
C1840      C1910   1.540       .  S
C1841      H1848   1.087       .  S
C1841      C1842   1.329       .  D
C1842      C1843   1.530       .  S
C1842      C1969   1.410       .  S
C1843      C1847   1.522       .  S
C1843      C1845   1.522       .  S
C1843      H1849   1.114       .  S
C1844      C1845   1.395       .  D
C1845      C1965   1.490       .  S
C1846      H1851   1.085       .  S
C1846      C1847   1.374       .  D
C1847      C2002   1.440       .  S
C1852      C1853   1.587       .  S
C1852      C1858   1.548       .  S
C1852      C1856   1.562       .  S
C1852      C1946   1.575       .  S
C1853      H1860   1.085       .  S
C1853      C1854   1.395       .  D
C1854      C1855   1.508       .  S
C1854      C1964   1.491       .  S
C1855      C1859   1.509       .  S
C1855      C1857   1.507       .  S
C1855      H1861   1.116       .  S
C1856      H1862   1.085       .  S
C1856      C1857   1.372       .  D
C1857      C1978   1.445       .  S
C1858      H1863   1.086       .  S
C1858      C1859   1.368       .  D
C1859      C1968   1.421       .  S
C1864      C1866   1.508       .  S
C1864      C1868   1.547       .  S
C1864      C1867   1.544       .  S
C1864      C1985   1.529       .  S
C1865      C1869   1.529       .  S
C1865      C1871   1.545       .  S
C1865      C1870   1.510       .  S
C1865      C1966   1.524       .  S
C1866      C1874   1.372       .  A
C1866      C1869   1.402       .  A
C1867      C1870   1.418       .  A
C1868      C1882   1.372       .  A
C1868      C1871   1.444       .  A
C1869      C1872   1.374       .  A
C1871      C1879   1.392       .  A
C1872      N1873   1.347       .  A
C1872      H1885   1.083       .  S
N1873      C1874   1.344       .  A
N1873      C1974   1.380       .  S
C1874      H1875   1.083       .  S
C1876      N1877   1.322   1_554  A
C1876      H1886   1.083       .  S
N1877      C1878   1.348       .  A
N1877      N1900   1.373       .  S
C1878      H1884   1.083       .  S
C1879      N1880   1.351       .  A
C1879      H1881   1.083       .  S
N1880      C1882   1.339       .  A
N1880      C2006   1.401       .  S
C1882      H1883   1.085       .  S
C1887      C1889   1.511       .  S
C1887      C1891   1.546       .  S
C1887      C1890   1.532       .  S
C1887      C1963   1.531       .  S
C1888      C1892   1.531       .  S
C1888      C1894   1.541       .  S
C1888      C1893   1.511       .  S
C1888      C1983   1.527       .  S
C1889      C1897   1.368       .  A
C1889      C1892   1.410       .  A
C1890      C1901   1.370       .  A
C1890      C1893   1.419       .  A
C1891      C1905   1.373       .  A
C1891      C1894   1.445       .  A
C1892      C1895   1.377       .  A
C1893      C1899   1.348       .  A
C1894      C1902   1.385       .  A
C1895      N1896   1.346       .  A
C1895      H1908   1.083       .  S
N1896      C1897   1.341       .  A
N1896      C1972   1.379       .  S
C1897      H1898   1.083       .  S
C1899      N1900   1.323       .  A
C1899      H1909   1.083       .  S
N1900      C1901   1.346       .  A
C1901      H1907   1.083       .  S
C1902      N1903   1.347       .  A
C1902      H1904   1.084       .  S
N1903      C1905   1.341       .  A
N1903      C1996   1.397       .  S
C1905      H1906   1.085       .  S
C1910      N1928   1.355       .  A
C1910      C1947   1.483       .  S
N1911      N1928   1.333       .  A
N1911      N1933   1.316       .  A
C1912      N1937   1.353       .  A
C1912      H1957   1.081       .  S
C1912      C1950   1.472       .  S
H1913      C1954   1.081       .  S
C1914      N1938   1.363       .  A
C1914      H1943   1.081       .  S
C1914      C1918   1.483       .  S
Co1915     N2268   2.117   1_545  S
Co1915     N2625   2.117   1_545  S
Co1915     N1931   2.116       .  S
Co1915    Cl1959   2.500       .  S
N1916      C1954   1.368       .  A
N1916      N1923   1.337       .  A
Co1917     N1937   2.088       .  S
Co1917    Cl1959   2.477       .  S
C1918      N1956   1.356       .  A
N1919      N1926   1.330       .  A
N1919      N1949   1.333       .  A
N1919     Co2287   2.102       .  S
N1920      N1938   1.323       .  A
N1920      N1956   1.336       .  A
N1921      C1950   1.365       .  A
N1921      N1931   1.329       .  A
H1922      C1947   1.082       .  S
N1923      N1944   1.342       .  A
N1924      N1942   1.329       .  A
N1924      N1929   1.336       .  A
C1925      N1929   1.377       .  A
C1925      C1953   1.471       .  S
N1926      C1941   1.360       .  A
C1927      N1955   1.354       .  A
C1927      H1961   1.081       .  S
C1927      C1930   1.466       .  S
C1930      N1951   1.386       .  A
N1931      N1937   1.315       .  A
N1932      C1958   1.354       .  A
N1932      N1934   1.321       .  A
N1932     Co1948   2.110   1_655  S
N1933      C1947   1.345       .  A
N1933     Co2250   2.114       .  S
N1934      N1962   1.344       .  A
N1934     Co2622   2.158       .  S
H1935      C1958   1.081       .  S
H1936      C1953   1.082       .  S
N1939      N1951   1.349       .  A
N1939      N1955   1.334       .  A
C1940      N1944   1.360       .  A
C1940      C1954   1.508       .  S
C1941      H1945   1.082       .  S
C1941      C1960   1.506       .  S
N1942      C1953   1.350       .  A
N1942     Co1952   2.105       .  S
C1946      N1962   1.368       .  A
C1946      C1958   1.473       .  S
N1949      C1960   1.357       .  A
Co1952     N2254   2.099   1_546  S
Co1952     N2604   2.153   1_545  S
N1955     Co2585   2.120       .  S
C1963      C1964   1.239       .  T
C1965      C1966   1.237       .  T
C1967      C1968   1.199       .  T
C1969      C1970   1.182       .  T
C1971      C1972   1.186       .  T
C1973      C1974   1.187       .  T
C1975      C1976   1.250       .  T
C1977      C1978   1.211       .  T
C1979      C1980   1.205       .  T
C1981      C1982   1.206       .  T
C1983      C1984   1.238       .  T
C1985      C1986   1.238       .  T
C1987      C1988   1.210       .  T
C1989      C1990   1.248       .  T
C1991      C1992   1.184       .  T
C1993      C1994   1.197       .  T
C1995      C1996   1.200       .  T
C1997      C1998   1.253       .  T
C1999      C2000   1.210       .  T
C2001      C2002   1.207       .  T
C2003      C2004   1.206       .  T
C2005      C2006   1.205       .  T
C2007      C2008   1.250       .  T
C2009      C2010   1.206       .  T
C2011      C2012   1.595       .  S
C2011      C2017   1.549       .  S
C2011      C2015   1.552       .  S
C2011      C2275   1.581       .  S
C2012      H2019   1.085       .  S
C2012      C2013   1.401       .  D
C2013      C2014   1.514       .  S
C2013      C2342   1.507       .  S
C2014      C2018   1.511       .  S
C2014      C2016   1.515       .  S
C2014      H2020   1.115       .  S
C2015      H2021   1.086       .  S
C2015      C2016   1.370       .  D
C2016      C2344   1.444       .  S
C2017      H2022   1.086       .  S
C2017      C2018   1.370       .  D
C2018      C2340   1.426       .  S
C2023      C2025   1.532       .  S
C2023      C2027   1.536       .  S
C2023      C2026   1.513       .  S
C2023      C2345   1.478       .  S
C2024      C2028   1.534       .  S
C2024      C2030   1.542       .  S
C2024      C2029   1.514       .  S
C2024      C2339   1.485       .  S
C2025      C2033   1.391       .  A
C2025      C2028   1.417       .  A
C2026      C2037   1.364       .  A
C2026      C2029   1.404       .  A
C2027      C2041   1.380       .  A
C2027      C2030   1.418       .  A
C2028      C2031   1.378       .  A
C2029      C2035   1.362       .  A
C2030      C2038   1.395       .  A
C2031      N2032   1.342       .  A
C2031      H2044   1.083       .  S
N2032      C2033   1.350       .  A
N2032      C2336   1.402       .  S
C2033      H2034   1.083       .  S
C2038      N2039   1.352       .  A
C2038      H2040   1.083       .  S
N2039      C2041   1.342       .  A
N2039      C2334   1.406       .  S
C2041      H2042   1.084       .  S
C2046      C2047   1.601       .  S
C2046      C2052   1.546       .  S
C2046      C2050   1.557       .  S
C2046      C2265   1.592       .  S
C2047      H2054   1.085       .  S
C2047      C2048   1.404       .  D
C2048      C2049   1.511       .  S
C2048      C2333   1.510       .  S
C2049      C2053   1.510       .  S
C2049      C2051   1.514       .  S
C2049      H2055   1.115       .  S
C2050      H2056   1.086       .  S
C2050      C2051   1.376       .  D
C2051      C2338   1.448       .  S
C2052      H2057   1.086       .  S
C2052      C2053   1.368       .  D
C2053      C2330   1.422       .  S
C2058      C2060   1.497       .  S
C2058      C2062   1.545       .  S
C2058      C2061   1.541       .  S
C2058      C2343   1.547       .  S
C2059      C2063   1.532       .  S
C2059      C2065   1.548       .  S
C2059      C2064   1.519       .  S
C2059      C2324   1.551       .  S
C2060      C2068   1.356       .  A
C2060      C2063   1.400       .  A
C2061      C2072   1.374       .  A
C2061      C2064   1.431       .  A
C2062      C2076   1.367       .  A
C2062      C2065   1.449       .  A
C2063      C2066   1.373       .  A
C2064      C2070   1.347       .  A
C2065      C2073   1.386       .  A
C2066      N2067   1.352       .  A
C2066      H2079   1.083       .  S
N2067      C2068   1.341       .  A
N2067      C2326   1.373       .  S
C2068      H2069   1.084       .  S
C2073      N2074   1.349       .  A
C2073      H2075   1.083       .  S
N2074      C2076   1.338       .  A
N2074      C2328   1.394       .  S
C2076      H2077   1.086       .  S
C2081      C2082   1.579       .  S
C2081      C2087   1.547       .  S
C2081      C2085   1.562       .  S
C2081      C2253   1.567       .  S
C2082      H2089   1.085       .  S
C2082      C2083   1.390       .  D
C2083      C2084   1.512       .  S
C2083      C2321   1.483       .  S
C2084      C2088   1.509       .  S
C2084      C2086   1.513       .  S
C2084      H2090   1.115       .  S
C2085      H2091   1.086       .  S
C2085      C2086   1.376       .  D
C2086      C2323   1.454       .  S
C2087      H2092   1.086       .  S
C2087      C2088   1.366       .  D
C2088      C2329   1.420       .  S
C2093      C2094   1.553       .  S
C2093      C2099   1.584       .  S
C2093      C2097   1.519       .  S
C2093      C2285   1.540       .  S
C2094      H2101   1.085       .  S
C2094      C2095   1.374       .  D
C2095      C2096   1.526       .  S
C2095      C2335   1.444       .  S
C2096      C2100   1.520       .  S
C2096      C2098   1.530       .  S
C2096      H2102   1.113       .  S
C2097      H2103   1.088       .  S
C2097      C2098   1.330       .  D
C2098      C2327   1.409       .  S
C2099      H2104   1.085       .  S
C2099      C2100   1.395       .  D
C2100      C2319   1.488       .  S
C2105      C2107   1.531       .  S
C2105      C2109   1.535       .  S
C2105      C2108   1.503       .  S
C2105      C2312   1.477       .  S
C2106      C2110   1.538       .  S
C2106      C2112   1.547       .  S
C2106      C2111   1.505       .  S
C2106      C2322   1.487       .  S
C2107      C2115   1.388       .  A
C2107      C2110   1.418       .  A
C2108      C2111   1.380       .  A
C2109      C2123   1.375       .  A
C2109      C2112   1.429       .  A
C2110      C2113   1.378       .  A
C2112      C2120   1.393       .  A
C2113      N2114   1.342       .  A
C2113      H2126   1.083       .  S
N2114      C2115   1.349       .  A
N2114      C2317   1.399       .  S
C2115      H2116   1.083       .  S
C2117      N2118   1.355       .  A
C2117      H2127   1.082       .  S
N2118      C2119   1.355       .  A
C2119      H2125   1.081       .  S
C2120      N2121   1.352       .  A
C2120      H2122   1.083       .  S
N2121      C2123   1.339       .  A
N2121      C2314   1.401       .  S
C2123      H2124   1.084       .  S
C2128      C2129   1.521       .  S
C2128      C2134   1.545       .  S
C2128      C2132   1.603       .  S
C2128      C2295   1.554       .  S
C2129      H2136   1.088       .  S
C2129      C2130   1.339       .  D
C2130      C2131   1.530       .  S
C2130      C2308   1.414       .  S
C2131      C2135   1.521       .  S
C2131      C2133   1.519       .  S
C2131      H2137   1.114       .  S
C2132      H2138   1.085       .  S
C2132      C2133   1.411       .  D
C2133      C2310   1.512       .  S
C2134      H2139   1.086       .  S
C2134      C2135   1.365       .  D
C2135      C2316   1.435       .  S
C2140      C2141   1.522       .  S
C2140      C2146   1.549       .  S
C2140      C2144   1.604       .  S
C2140      C2260   1.556       .  S
C2141      H2148   1.088       .  S
C2141      C2142   1.338       .  D
C2142      C2143   1.530       .  S
C2142      C2306   1.414       .  S
C2143      C2147   1.518       .  S
C2143      C2145   1.517       .  S
C2143      H2149   1.114       .  S
C2144      H2150   1.085       .  S
C2144      C2145   1.410       .  D
C2145      C2325   1.513       .  S
C2146      H2151   1.086       .  S
C2146      C2147   1.370       .  D
C2147      C2315   1.437       .  S
C2152      C2154   1.502       .  S
C2152      C2156   1.546       .  S
C2152      C2155   1.545       .  S
C2152      C2332   1.551       .  S
C2153      C2157   1.534       .  S
C2153      C2159   1.542       .  S
C2153      C2158   1.516       .  S
C2153      C2311   1.550       .  S
C2154      C2162   1.362       .  A
C2154      C2157   1.410       .  A
C2155      C2158   1.429       .  A
C2156      C2170   1.368       .  A
C2156      C2159   1.448       .  A
C2157      C2160   1.373       .  A
C2159      C2167   1.383       .  A
C2160      N2161   1.349       .  A
C2160      H2173   1.083       .  S
N2161      C2162   1.339       .  A
N2161      C2305   1.372       .  S
C2162      H2163   1.084       .  S
C2164      N2165   1.320       .  A
C2164      H2174   1.083       .  S
N2165      C2166   1.348       .  A
C2166      H2172   1.083       .  S
C2167      N2168   1.347       .  A
C2167      H2169   1.084       .  S
N2168      C2170   1.339       .  A
N2168      C2302   1.393       .  S
C2170      H2171   1.085       .  S
C2175      C2176   1.521       .  S
C2175      C2181   1.553       .  S
C2175      C2179   1.589       .  S
C2175      C2245   1.545       .  S
C2176      H2183   1.086       .  S
C2176      C2177   1.327       .  D
C2177      C2178   1.527       .  S
C2177      C2304   1.407       .  S
C2178      C2182   1.521       .  S
C2178      C2180   1.519       .  S
C2178      H2184   1.114       .  S
C2179      H2520   1.085       .  S
C2179      C2180   1.400       .  D
C2180      C2300   1.492       .  S
C2181      H2186   1.086       .  S
C2181      C2182   1.372       .  D
C2182      C2337   1.438       .  S
H2185      C2514   1.085       .  S
C2187      C2188   1.589       .  S
C2187      C2193   1.545       .  S
C2187      C2191   1.561       .  S
C2187      C2281   1.572       .  S
C2188      H2195   1.085       .  S
C2188      C2189   1.397       .  D
C2189      C2190   1.506       .  S
C2189      C2299   1.490       .  S
C2190      C2194   1.508       .  S
C2190      C2192   1.505       .  S
C2190      H2196   1.116       .  S
C2191      H2197   1.085       .  S
C2191      C2192   1.370       .  D
C2192      C2313   1.440       .  S
C2193      H2198   1.086       .  S
C2193      C2194   1.365       .  D
C2194      C2303   1.417       .  S
C2199      C2201   1.505       .  S
C2199      C2203   1.546       .  S
C2199      C2202   1.538       .  S
C2199      C2320   1.523       .  S
C2200      C2204   1.528       .  S
C2200      C2206   1.547       .  S
C2200      C2205   1.511       .  S
C2200      C2301   1.526       .  S
C2201      C2209   1.369       .  A
C2201      C2204   1.399       .  A
C2202      C2548   1.369   1_554  A
C2202      C2205   1.417       .  A
C2203      C2217   1.372       .  A
C2203      C2206   1.447       .  A
C2204      C2207   1.373       .  A
C2205      C2546   1.346       .  A
C2206      C2214   1.390       .  A
C2207      N2208   1.347       .  A
C2207      H2220   1.083       .  S
N2208      C2209   1.343       .  A
N2208      C2309   1.379       .  S
C2209      H2210   1.083       .  S
C2211      C2540   1.350       .  A
C2211      N2212   1.327       .  A
C2211      H2221   1.083       .  S
N2212      C2213   1.349       .  A
N2212      N2235   1.375       .  S
C2213      C2537   1.371       .  A
C2213      H2219   1.083       .  S
C2214      N2215   1.350       .  A
C2214      H2216   1.083       .  S
N2215      C2217   1.339       .  A
N2215      C2341   1.398       .  S
C2217      H2218   1.085       .  S
C2222      C2224   1.521       .  S
C2222      C2226   1.544       .  S
C2222      C2225   1.531       .  S
C2222      C2298   1.531       .  S
C2223      C2227   1.525       .  S
C2223      C2229   1.537       .  S
C2223      C2228   1.514       .  S
C2223      C2318   1.523       .  S
C2224      C2232   1.375       .  A
C2224      C2227   1.417       .  A
C2225      C2236   1.370       .  A
C2225      C2228   1.421       .  A
C2226      C2240   1.373       .  A
C2226      C2229   1.440       .  A
C2227      C2230   1.373       .  A
C2228      C2234   1.355       .  A
C2229      C2237   1.382       .  A
C2230      N2231   1.341       .  A
C2230      H2243   1.083       .  S
N2231      C2232   1.343       .  A
N2231      C2307   1.379       .  S
C2232      H2233   1.083       .  S
C2234      N2235   1.325       .  A
C2234      H2244   1.083       .  S
N2235      C2236   1.344       .  A
C2236      H2242   1.083       .  S
C2237      N2238   1.346       .  A
C2237      H2239   1.084       .  S
N2238      C2240   1.341       .  A
N2238      C2331   1.394       .  S
C2240      H2241   1.085       .  S
C2245      N2263   1.356       .  A
C2245      C2282   1.487       .  S
N2246      N2263   1.333   1_556  A
N2246      N2268   1.315       .  A
C2247      N2272   1.351       .  A
C2247      H2292   1.081       .  S
C2247      C2285   1.467       .  S
H2248      C2289   1.081       .  S
C2249      N2273   1.361       .  A
C2249      H2278   1.081       .  S
C2249      C2253   1.484       .  S
Co2250     N2593   2.129       .  S
Co2250     N2266   2.118       .  S
Co2250    Cl2294   2.500       .  S
N2251      C2289   1.364       .  A
N2251      N2258   1.334       .  A
N2251     Co2587   2.229   1_554  S
Co2252     N2586   2.247       .  S
Co2252     N2272   2.082       .  S
Co2252    Cl2294   2.485       .  S
C2253      N2291   1.356       .  A
N2254      N2261   1.330       .  A
N2254      N2284   1.334       .  A
N2255      N2273   1.322       .  A
N2255      N2291   1.337       .  A
N2256      C2285   1.365       .  A
N2256      N2266   1.329       .  A
H2257      C2282   1.082       .  S
N2258      N2279   1.338       .  A
N2258     Co2585   2.125   1_554  S
N2259      N2277   1.329       .  A
N2259      N2264   1.339       .  A
C2260      N2264   1.381       .  A
C2260      C2288   1.472       .  S
N2261      C2276   1.356       .  A
N2261     Co2618   2.217   1_654  S
C2262      N2290   1.356       .  A
C2262      H2296   1.082       .  S
C2262      C2265   1.472       .  S
C2265      N2286   1.385       .  A
N2266      N2272   1.317       .  A
N2267      C2293   1.352       .  A
N2267      N2269   1.322       .  A
N2267     Co2283   2.102   1_655  S
N2268      C2282   1.346   1_556  A
N2269      N2297   1.344       .  A
H2270      C2293   1.081       .  S
H2271      C2288   1.082       .  S
N2273     Co2622   2.155   1_554  S
N2274      N2286   1.348       .  A
N2274      N2290   1.332       .  A
C2275      N2279   1.358       .  A
C2275      C2289   1.505       .  S
C2276      H2280   1.082       .  S
C2276      C2295   1.503       .  S
N2277      C2288   1.350       .  A
N2277     Co2287   2.113       .  S
C2281      N2297   1.368       .  A
C2281      C2293   1.471       .  S
Co2283     N2596   2.213   1_455  S
N2284      C2295   1.358       .  A
Co2287     N2608   2.146       .  S
C2298      C2299   1.238       .  T
C2300      C2301   1.238       .  T
C2302      C2303   1.196       .  T
C2304      C2305   1.181       .  T
C2306      C2307   1.185       .  T
C2308      C2309   1.186       .  T
C2310      C2311   1.250       .  T
C2312      C2313   1.208       .  T
C2314      C2315   1.205       .  T
C2316      C2317   1.203       .  T
C2318      C2319   1.235       .  T
C2320      C2321   1.234       .  T
C2322      C2323   1.216       .  T
C2324      C2325   1.251       .  T
C2326      C2327   1.183       .  T
C2328      C2329   1.198       .  T
C2330      C2331   1.198       .  T
C2332      C2333   1.250       .  T
C2334      C2335   1.209       .  T
C2336      C2337   1.206       .  T
C2338      C2339   1.213       .  T
C2340      C2341   1.201       .  T
C2342      C2343   1.248       .  T
C2344      C2345   1.209       .  T
C2346      C2347   1.594       .  S
C2346      C2352   1.548       .  S
C2346      C2350   1.557       .  S
C2346      C2610   1.590       .  S
C2347      H2354   1.085       .  S
C2347      C2348   1.399       .  D
C2348      C2349   1.517       .  S
C2348      C2677   1.507       .  S
C2349      C2353   1.513       .  S
C2349      C2351   1.517       .  S
C2349      H2355   1.115       .  S
C2350      H2356   1.085       .  S
C2350      C2351   1.376       .  D
C2351      C2679   1.452       .  S
C2352      H2357   1.086       .  S
C2352      C2353   1.370       .  D
C2353      C2675   1.429       .  S
C2358      C2360   1.545       .  S
C2358      C2362   1.541       .  S
C2358      C2361   1.503       .  S
C2358      C2680   1.485       .  S
C2359      C2363   1.538       .  S
C2359      C2365   1.536       .  S
C2359      C2364   1.506       .  S
C2359      C2674   1.478       .  S
C2360      C2368   1.397       .  A
C2360      C2363   1.426       .  A
C2361      C2372   1.352       .  A
C2361      C2364   1.383       .  A
C2362      C2376   1.384       .  A
C2362      C2365   1.421       .  A
C2363      C2366   1.381       .  A
C2364      C2370   1.352       .  A
C2365      C2373   1.393       .  A
C2366      N2367   1.342       .  A
C2366      H2379   1.084       .  S
N2367      C2368   1.352       .  A
N2367      C2671   1.408       .  S
C2368      H2369   1.083       .  S
C2373      N2374   1.349       .  A
C2373      H2375   1.083       .  S
N2374      C2376   1.345       .  A
N2374      C2669   1.407       .  S
C2376      H2377   1.083       .  S
C2381      C2382   1.600       .  S
C2381      C2387   1.549       .  S
C2381      C2385   1.551       .  S
C2381      C2600   1.585       .  S
C2382      H2389   1.085       .  S
C2382      C2383   1.403       .  D
C2383      C2384   1.511       .  S
C2383      C2668   1.507       .  S
C2384      C2388   1.510       .  S
C2384      C2386   1.514       .  S
C2384      H2390   1.115       .  S
C2385      H2391   1.086       .  S
C2385      C2386   1.371       .  D
C2386      C2673   1.443       .  S
C2387      H2392   1.086       .  S
C2387      C2388   1.370       .  D
C2388      C2665   1.425       .  S
C2393      C2395   1.493       .  S
C2393      C2397   1.546       .  S
C2393      C2396   1.551       .  S
C2393      C2678   1.546       .  S
C2394      C2398   1.534       .  S
C2394      C2400   1.546       .  S
C2394      C2399   1.521       .  S
C2394      C2659   1.548       .  S
C2395      C2403   1.353       .  A
C2395      C2398   1.389       .  A
C2396      C2407   1.378       .  A
C2396      C2399   1.437       .  A
C2397      C2411   1.369       .  A
C2397      C2400   1.446       .  A
C2398      C2401   1.369       .  A
C2399      C2405   1.348       .  A
C2400      C2408   1.388       .  A
C2401      N2402   1.357       .  A
C2401      H2414   1.083       .  S
N2402      C2403   1.343       .  A
N2402      C2661   1.373       .  S
C2403      H2404   1.084       .  S
C2408      N2409   1.350       .  A
C2408      H2410   1.083       .  S
N2409      C2411   1.338       .  A
N2409      C2663   1.398       .  S
C2411      H2412   1.086       .  S
C2416      C2417   1.577       .  S
C2416      C2422   1.554       .  S
C2416      C2420   1.556       .  S
C2416      C2588   1.565       .  S
C2417      H2424   1.085       .  S
C2417      C2418   1.388       .  D
C2418      C2419   1.511       .  S
C2418      C2656   1.478       .  S
C2419      C2423   1.507       .  S
C2419      C2421   1.511       .  S
C2419      H2425   1.116       .  S
C2420      H2426   1.086       .  S
C2420      C2421   1.371       .  D
C2421      C2658   1.443       .  S
C2422      H2427   1.086       .  S
C2422      C2423   1.372       .  D
C2423      C2664   1.427       .  S
C2428      C2429   1.559       .  S
C2428      C2434   1.588       .  S
C2428      C2432   1.516       .  S
C2428      C2620   1.549       .  S
C2429      H2436   1.085       .  S
C2429      C2430   1.376       .  D
C2430      C2431   1.520       .  S
C2430      C2670   1.442       .  S
C2431      C2435   1.519       .  S
C2431      C2433   1.525       .  S
C2431      H2437   1.114       .  S
C2432      H2438   1.088       .  S
C2432      C2433   1.331       .  D
C2433      C2662   1.404       .  S
C2434      H2439   1.085       .  S
C2434      C2435   1.399       .  D
C2435      C2654   1.492       .  S
C2440      C2442   1.538       .  S
C2440      C2444   1.542       .  S
C2440      C2443   1.505       .  S
C2440      C2647   1.473       .  S
C2441      C2445   1.533       .  S
C2441      C2447   1.543       .  S
C2441      C2446   1.507       .  S
C2441      C2657   1.477       .  S
C2442      C2450   1.391       .  A
C2442      C2445   1.409       .  A
C2443      C2446   1.376       .  A
C2444      C2458   1.381       .  A
C2444      C2447   1.431       .  A
C2445      C2448   1.380       .  A
C2447      C2455   1.390       .  A
C2448      N2449   1.345       .  A
C2448      H2461   1.083       .  S
N2449      C2450   1.355       .  A
N2449      C2652   1.407       .  S
C2450      H2451   1.082       .  S
C2452      N2453   1.349       .  A
C2452      H2462   1.082       .  S
N2453      C2454   1.349       .  A
C2454      H2460   1.081       .  S
C2455      N2456   1.350       .  A
C2455      H2457   1.083       .  S
N2456      C2458   1.342       .  A
N2456      C2649   1.403       .  S
C2458      H2459   1.084       .  S
C2463      C2464   1.520       .  S
C2463      C2469   1.553       .  S
C2463      C2467   1.599       .  S
C2463      C2630   1.557       .  S
C2464      H2471   1.088       .  S
C2464      C2465   1.339       .  D
C2465      C2466   1.531       .  S
C2465      C2643   1.413       .  S
C2466      C2470   1.521       .  S
C2466      C2468   1.519       .  S
C2466      H2472   1.114       .  S
C2467      H2473   1.085       .  S
C2467      C2468   1.408       .  D
C2468      C2645   1.507       .  S
C2469      H2474   1.086       .  S
C2469      C2470   1.371       .  D
C2470      C2651   1.446       .  S
C2475      C2476   1.525       .  S
C2475      C2481   1.551       .  S
C2475      C2479   1.602       .  S
C2475      C2595   1.561       .  S
C2476      H2483   1.088       .  S
C2476      C2477   1.342       .  D
C2477      C2478   1.529       .  S
C2477      C2641   1.419       .  S
C2478      C2482   1.517       .  S
C2478      C2480   1.516       .  S
C2478      H2484   1.114       .  S
C2479      H2485   1.085       .  S
C2479      C2480   1.407       .  D
C2480      C2660   1.510       .  S
C2481      H2486   1.086       .  S
C2481      C2482   1.372       .  D
C2482      C2650   1.438       .  S
C2487      C2489   1.500       .  S
C2487      C2491   1.542       .  S
C2487      C2490   1.543       .  S
C2487      C2667   1.548       .  S
C2488      C2492   1.536       .  S
C2488      C2494   1.542       .  S
C2488      C2493   1.513       .  S
C2488      C2646   1.546       .  S
C2489      C2497   1.359       .  A
C2489      C2492   1.414       .  A
C2490      C2493   1.430       .  A
C2491      C2505   1.365       .  A
C2491      C2494   1.444       .  A
C2492      C2495   1.376       .  A
C2494      C2502   1.385       .  A
C2495      N2496   1.349       .  A
C2495      H2508   1.083       .  S
N2496      C2497   1.336       .  A
N2496      C2640   1.370       .  S
C2497      H2498   1.084       .  S
C2499      N2500   1.316       .  A
C2499      H2509   1.083       .  S
N2500      C2501   1.355       .  A
C2501      H2507   1.083       .  S
C2502      N2503   1.348       .  A
C2502      H2504   1.084       .  S
N2503      C2505   1.338       .  A
N2503      C2637   1.391       .  S
C2505      H2506   1.085       .  S
C2510      C2511   1.516       .  S
C2510      C2516   1.558       .  S
C2510      C2514   1.581       .  S
C2510      C2580   1.537       .  S
C2511      H2518   1.087       .  S
C2511      C2512   1.324       .  D
C2512      C2513   1.528       .  S
C2512      C2639   1.405       .  S
C2513      C2517   1.523       .  S
C2513      C2515   1.519       .  S
C2513      H2519   1.114       .  S
C2514      C2515   1.394       .  D
C2515      C2635   1.484       .  S
C2516      H2521   1.085       .  S
C2516      C2517   1.378       .  D
C2517      C2672   1.445       .  S
C2522      C2523   1.585       .  S
C2522      C2528   1.542       .  S
C2522      C2526   1.560       .  S
C2522      C2616   1.568       .  S
C2523      H2530   1.085       .  S
C2523      C2524   1.394       .  D
C2524      C2525   1.509       .  S
C2524      C2634   1.490       .  S
C2525      C2529   1.512       .  S
C2525      C2527   1.508       .  S
C2525      H2531   1.116       .  S
C2526      H2532   1.085       .  S
C2526      C2527   1.371       .  D
C2527      C2648   1.440       .  S
C2528      H2533   1.086       .  S
C2528      C2529   1.364       .  D
C2529      C2638   1.420       .  S
C2534      C2536   1.508       .  S
C2534      C2538   1.543       .  S
C2534      C2537   1.535       .  S
C2534      C2655   1.517       .  S
C2535      C2539   1.528       .  S
C2535      C2541   1.543       .  S
C2535      C2540   1.511       .  S
C2535      C2636   1.519       .  S
C2536      C2544   1.369       .  A
C2536      C2539   1.406       .  A
C2537      C2540   1.416       .  A
C2538      C2552   1.372       .  A
C2538      C2541   1.441       .  A
C2539      C2542   1.376       .  A
C2541      C2549   1.389       .  A
C2542      N2543   1.345       .  A
C2542      H2555   1.083       .  S
N2543      C2544   1.341       .  A
N2543      C2644   1.378       .  S
C2544      H2545   1.083       .  S
C2546      N2547   1.322   1_554  A
C2546      H2556   1.083       .  S
N2547      C2548   1.352       .  A
N2547      N2570   1.374       .  S
C2548      H2554   1.083       .  S
C2549      N2550   1.349       .  A
C2549      H2551   1.082       .  S
N2550      C2552   1.340       .  A
N2550      C2676   1.398       .  S
C2552      H2553   1.085       .  S
C2557      C2559   1.518       .  S
C2557      C2561   1.546       .  S
C2557      C2560   1.535       .  S
C2557      C2633   1.530       .  S
C2558      C2562   1.526       .  S
C2558      C2564   1.543       .  S
C2558      C2563   1.512       .  S
C2558      C2653   1.527       .  S
C2559      C2567   1.376       .  A
C2559      C2562   1.406       .  A
C2560      C2571   1.367       .  A
C2560      C2563   1.421       .  A
C2561      C2575   1.373       .  A
C2561      C2564   1.445       .  A
C2562      C2565   1.372       .  A
C2563      C2569   1.350       .  A
C2564      C2572   1.387       .  A
C2565      N2566   1.343       .  A
C2565      H2578   1.083       .  S
N2566      C2567   1.348       .  A
N2566      C2642   1.383       .  S
C2567      H2568   1.083       .  S
C2569      N2570   1.322       .  A
C2569      H2579   1.083       .  S
N2570      C2571   1.348       .  A
C2571      H2577   1.083       .  S
C2572      N2573   1.348       .  A
C2572      H2574   1.084       .  S
N2573      C2575   1.339       .  A
N2573      C2666   1.397       .  S
C2575      H2576   1.085       .  S
C2580      N2598   1.351       .  A
C2580      C2617   1.486       .  S
N2581      N2598   1.332       .  A
N2581      N2603   1.317       .  A
C2582      N2607   1.350       .  A
C2582      H2627   1.081       .  S
C2582      C2620   1.466       .  S
H2583      C2624   1.081       .  S
C2584      N2608   1.361       .  A
C2584      H2613   1.081       .  S
C2584      C2588   1.481       .  S
Co2585     N2601   2.135       .  S
Co2585    Cl2629   2.503       .  S
N2586      C2624   1.370       .  A
N2586      N2593   1.335       .  A
Co2587     N2607   2.075       .  S
Co2587    Cl2629   2.469       .  S
C2588      N2626   1.358       .  A
N2589      N2596   1.331       .  A
N2589      N2619   1.335       .  A
N2590      N2608   1.321       .  A
N2590      N2626   1.336       .  A
N2591      C2620   1.371       .  A
N2591      N2601   1.334       .  A
H2592      C2617   1.082       .  S
N2593      N2614   1.338       .  A
N2594      N2612   1.330       .  A
N2594      N2599   1.342       .  A
C2595      N2599   1.383       .  A
C2595      C2623   1.471       .  S
N2596      C2611   1.357       .  A
C2597      N2625   1.354       .  A
C2597      H2631   1.082       .  S
C2597      C2600   1.467       .  S
C2600      N2621   1.385       .  A
N2601      N2607   1.315       .  A
N2602      C2628   1.353       .  A
N2602      N2604   1.321       .  A
N2602     Co2618   2.097   1_655  S
N2603      C2617   1.345       .  A
N2604      N2632   1.342       .  A
H2605      C2628   1.081       .  S
H2606      C2623   1.082       .  S
N2609      N2621   1.347       .  A
N2609      N2625   1.332       .  A
C2610      N2614   1.357       .  A
C2610      C2624   1.510       .  S
C2611      H2615   1.082       .  S
C2611      C2630   1.500       .  S
N2612      C2623   1.349       .  A
N2612     Co2622   2.112       .  S
C2616      N2632   1.367       .  A
C2616      C2628   1.469       .  S
N2619      C2630   1.361       .  A
C2633      C2634   1.238       .  T
C2635      C2636   1.233       .  T
C2637      C2638   1.196       .  T
C2639      C2640   1.180       .  T
C2641      C2642   1.189       .  T
C2643      C2644   1.185       .  T
C2645      C2646   1.248       .  T
C2647      C2648   1.208       .  T
C2649      C2650   1.206       .  T
C2651      C2652   1.210       .  T
C2653      C2654   1.238       .  T
C2655      C2656   1.231       .  T
C2657      C2658   1.209       .  T
C2659      C2660   1.249       .  T
C2661      C2662   1.182       .  T
C2663      C2664   1.202       .  T
C2665      C2666   1.201       .  T
C2667      C2668   1.248       .  T
C2669      C2670   1.209       .  T
C2671      C2672   1.211       .  T
C2673      C2674   1.209       .  T
C2675      C2676   1.202       .  T
C2677      C2678   1.247       .  T
C2679      C2680   1.214       .  T
