geometry optimzed in LAMMPS
_audit_creation_date              2020-12-01 
_audit_creation_method            'lammps2cif' 
_symmetry_space_group_name_H-M    'P1' 
_symmetry_Int_Tables_number       1 
_symmetry_cell_setting            triclinic 
loop_ 
_symmetry_equiv_pos_as_xyz 
  x,y,z 
_cell_length_a                    43.25081409 
_cell_length_b                    43.313230182731665 
_cell_length_c                    38.01646941576161 
_cell_angle_alpha                 91.53018120361548 
_cell_angle_beta                  88.07182344757004 
_cell_angle_gamma                 121.80634668909448 
loop_ 
_atom_site_label 
_atom_site_type_symbol 
_atom_site_fract_x 
_atom_site_fract_y 
_atom_site_fract_z 
_atom_site_charge 
C1          C  0.24916464  0.37497753  0.15281171     0.79700
N2          N  0.24452038  0.39879699  0.13452639    -0.78600
C3          C  0.23621476  0.39297104  0.09995939     0.82200
N4          N  0.23438678  0.36438501  0.08304134    -0.78500
C5          C  0.24015507  0.34116963  0.10035156     0.82300
N6          N  0.24660860  0.34575145  0.13538038    -0.80200
C7          C  0.25256821  0.37844811  0.41808643     0.79700
N8          N  0.24272630  0.34796246  0.43658113    -0.78600
C9          C  0.23531210  0.34665030  0.47162880     0.82200
N10         N  0.23922222  0.37654007  0.48843987    -0.78500
C11         C  0.25018175  0.40754841  0.47047250     0.82300
N12         N  0.25580437  0.40808139  0.43513273    -0.80200
C13         C  0.08031520  0.36838387  0.41382108     0.79700
N14         N  0.11213165  0.39007123  0.43095153    -0.78600
C15         C  0.11422242  0.38587573  0.46586341     0.82200
N16         N  0.08431821  0.36018512  0.48373158    -0.78500
C17         C  0.05240960  0.33880785  0.46718388     0.82300
N18         N  0.05053536  0.34266897  0.43222793    -0.80200
C19         C  0.08421093  0.37748469  0.14884285     0.79700
N20         N  0.05942369  0.34623849  0.13227089    -0.78600
C21         C  0.06211588  0.34293423  0.09690111     0.82200
N22         N  0.08866003  0.37103916  0.07824868    -0.78500
C23         C  0.11280502  0.40244913  0.09444354     0.82300
N24         N  0.11150336  0.40538052  0.13000318    -0.80200
C25         C  0.06977962  0.19889186  0.15351347     0.79700
N26         N  0.04156421  0.19634002  0.13575955    -0.78600
C27         C  0.04484562  0.20290732  0.10065908     0.82200
N28         N  0.07608459  0.21218329  0.08309490    -0.78500
C29         C  0.10386388  0.21403735  0.09993095     0.82300
N30         N  0.10071349  0.20740724  0.13491847    -0.80200
C31         C  0.08179678  0.20404992  0.41995006     0.79700
N32         N  0.10966380  0.20319663  0.43476587    -0.78600
C33         C  0.11377624  0.20715717  0.47018319     0.82200
N34         N  0.09048430  0.21269082  0.49030684    -0.78500
C35         C  0.06273419  0.21356237  0.47573507     0.82300
N36         N  0.05860978  0.20949505  0.44042356    -0.80200
C37         C  0.36489731  0.09683708  0.42090080     0.79700
N38         N  0.33511126  0.07049151  0.43877519    -0.78600
C39         C  0.33534805  0.06858139  0.47433159     0.82200
N40         N  0.36521122  0.09428816  0.49225784    -0.78500
C41         C  0.39467989  0.12142696  0.47462375     0.82300
N42         N  0.39414212  0.12224425  0.43912076    -0.80200
C43         C  0.36058538  0.11008535  0.15682998     0.79700
N44         N  0.38565896  0.14023653  0.13859339    -0.78600
C45         C  0.37994272  0.14302743  0.10423898     0.82200
N46         N  0.35016194  0.11605077  0.08861874    -0.78500
C47         C  0.32607836  0.08577263  0.10587725     0.82300
N48         N  0.33105103  0.08245887  0.14024110    -0.80200
C49         C  0.35508395  0.26761899  0.15042156     0.79700
N50         N  0.37712990  0.25897062  0.13179623    -0.78600
C51         C  0.37257889  0.25122862  0.09674212     0.82200
N52         N  0.34622481  0.25250615  0.08021699    -0.78500
C53         C  0.32447487  0.26146922  0.09803678     0.82300
N54         N  0.32850730  0.26864550  0.13312504    -0.80200
C55         C  0.36598563  0.27044504  0.41547847     0.79700
N56         N  0.33468682  0.26040877  0.43407831    -0.78600
C57         C  0.33311933  0.25538335  0.46934036     0.82200
N58         N  0.36315230  0.26143445  0.48592924    -0.78500
C59         C  0.39473894  0.27229660  0.46772788     0.82300
N60         N  0.39575902  0.27565770  0.43221877    -0.80200
C61         C  0.19503361  0.09839996  0.41572822     0.79700
N62         N  0.19384619  0.12607521  0.43254921    -0.78600
C63         C  0.20001877  0.13208776  0.46757842     0.82200
N64         N  0.20924188  0.11142651  0.48554444    -0.78500
C65         C  0.21127148  0.08423742  0.46913801     0.82300
N66         N  0.20319201  0.07729530  0.43454763    -0.80200
C67         C  0.18666775  0.09061772  0.15047170     0.79700
N68         N  0.18583823  0.06275689  0.13210278    -0.78600
C69         C  0.19030396  0.06469598  0.09654783     0.82200
N70         N  0.19767195  0.09498135  0.07974414    -0.78500
C71         C  0.19925778  0.12295624  0.09776544     0.82300
N72         N  0.19311671  0.12062631  0.13311766    -0.80200
O73         O  0.19617463  0.30151310  0.51294358    -0.80600
O74         O  0.22196304  0.19322822  0.48448341    -0.80600
O75         O  0.28030859  0.25770991  0.48614949    -0.80700
O76         O  0.13507540  0.18565268  0.51336845    -0.80600
O77         O  0.28872927  0.21726292  0.51187495    -0.80700
O78         O  0.17586461  0.23423961  0.48498140    -0.80600
O79         O  0.17399989  0.15076960  0.51261729    -0.80600
O80         O  0.23981024  0.29568847  0.48732883    -0.80700
C81         C  0.22331278  0.31337562  0.49165259     1.09100
C82         C  0.19681894  0.16036040  0.48702936     1.08900
C83         C  0.29933126  0.24286865  0.48996602     1.09100
C84         C  0.14365364  0.20731450  0.48794723     1.09000
O85         O  0.14547932  0.23894338  0.05193377    -0.80600
O86         O  0.26611714  0.22846384  0.07701688    -0.80700
O87         O  0.26269569  0.31645326  0.05877334    -0.80600
O88         O  0.18758782  0.16868226  0.08690027    -0.80600
O89         O  0.22611908  0.16495091  0.05108388    -0.80700
O90         O  0.20760891  0.28271511  0.07732330    -0.80600
O91         O  0.15011825  0.20240895  0.08712052    -0.80600
O92         O  0.29987459  0.28233005  0.05735279    -0.80700
Co93       Co  0.19541841  0.26020968  0.03045976     1.51500
Co94       Co  0.24564696  0.21422597  0.03013002     1.51700
Co95       Co  0.26389348  0.28122045  0.02449632     1.51600
Co96       Co  0.16502392  0.18027439  0.04942733     1.51500
O97         O  0.21305896  0.22987253  0.04341505    -1.42600
C98         C  0.13523149  0.21956803  0.07930290     1.09000
C99         C  0.29459428  0.25854413  0.07892756     1.09100
C100        C  0.23766003  0.31115709  0.08007005     1.09000
C101        C  0.20548384  0.15427019  0.07832703     1.09000
O102        O  0.04565734  0.30142501  0.04955148    -0.80600
O103        O  0.39440961  0.17295327  0.05103882    -0.80600
O104        O  0.43073923  0.26136696  0.08550634    -0.80700
O105        O  0.49048841  0.17362565  0.06861608    -0.80600
O106        O  0.38992212  0.23127428  0.04498808    -0.80700
O107        O  0.02186817  0.23396612  0.07236981    -0.80600
O108        O  0.43953049  0.19065477  0.08797045    -0.80600
O109        O  0.50324955  0.29321078  0.08702618    -0.80700
C110        C  0.03619172  0.31011324  0.07800318     1.09100
C111        C  0.40601054  0.17188572  0.08112337     1.08900
C112        C  0.39852586  0.24621349  0.07543509     1.09100
C113        C  0.01681327  0.20294850  0.08092168     1.09000
O114        O  0.05846794  0.25672140  0.51057813    -0.80600
O115        O  0.42998713  0.24735930  0.47717308    -0.80700
O116        O  0.50954856  0.31839919  0.51427951    -0.80600
O117        O  0.43420393  0.15361616  0.52309738    -0.80600
O118        O  0.43057269  0.18494451  0.48198747    -0.80700
O119        O  0.01439333  0.27749550  0.48243883    -0.80600
O120        O  0.50690052  0.20388334  0.50355836    -0.80600
O121        O  0.43505485  0.28837509  0.51526544    -0.80700
Co122      Co  0.01479363  0.25337622  0.02549927     1.51500
Co123      Co  0.41409369  0.21056356  0.01368373     1.51700
Co124      Co  0.46960482  0.28766626  0.05016386     1.51600
Co125      Co  0.47280417  0.20015384  0.04718726     1.51500
O126        O  0.46366059  0.23963920  0.03427446    -1.42600
C127        C  0.04175539  0.22504276  0.49757430     1.09000
C128        C  0.42396276  0.27190053  0.48580716     1.09100
C129        C  0.02185345  0.30977058  0.48720561     1.09000
C130        C  0.42254521  0.15447116  0.49326074     1.09000
O131        O  0.21494901  0.40874792  0.05123247    -0.80600
O132        O  0.22443946  0.04088602  0.07651285    -0.80600
O133        O  0.28324483  0.02399349  0.09270809    -0.80700
O134        O  0.13992170  0.44677150  0.05009099    -0.80600
O135        O  0.28948032  0.06587894  0.05673101    -0.80700
O136        O  0.17198262  0.42877799  0.07342800    -0.80600
O137        O  0.17337138  0.02019743  0.05213348    -0.80600
O138        O  0.24796763  0.45133681  0.08939260    -0.80700
C139        C  0.23198976  0.41857348  0.07986235     1.09100
C140        C  0.19476768  0.03862588  0.07611309     1.08900
C141        C  0.29725484  0.05701359  0.08507288     1.09100
C142        C  0.14356422  0.42907330  0.07345758     1.09000
O143        O  0.15717574  0.39521507  0.50831083    -0.80600
O144        O  0.27132450  0.03480867  0.48815313    -0.80700
O145        O  0.27090401  0.45129273  0.51655919    -0.80600
O146        O  0.20558671  0.02718241  0.48368863    -0.80600
O147        O  0.24468171  0.07702325  0.51325091    -0.80700
O148        O  0.22653095  0.44437886  0.48454669    -0.80600
O149        O  0.16679136  0.44420211  0.48070093    -0.80600
O150        O  0.30760209  0.02703778  0.52083493    -0.80700
Co151      Co  0.19742232  0.43770910  0.02802408     1.51500
Co152      Co  0.24378896  0.03568580  0.03101263     1.51700
Co153      Co  0.27507271  0.48842329  0.05310474     1.51600
Co154      Co  0.17882241  0.48446356  0.01814091     1.51500
O155        O  0.22777403  0.48697452  0.04176866    -1.42600
C156        C  0.14774044  0.40930733  0.48534202     1.09000
C157        C  0.30275682  0.04077848  0.49412415     1.09100
C158        C  0.25142183  0.43821097  0.48938763     1.09000
C159        C  0.22095034  0.06193424  0.48950720     1.09000
C160        C  0.16050685  0.09688887  0.32345066    -0.06000
C161        C  0.17777753  0.08255072  0.30294447     0.08200
C162        C  0.19785161  0.07017998  0.31940699    -0.03300
C163        C  0.20379156  0.07541201  0.35595427    -0.01600
C164        C  0.18776906  0.09140352  0.37694060    -0.05200
C165        C  0.16493519  0.10088584  0.36024293     0.01800
C166        C  0.17879733  0.08479718  0.26369807     0.08600
C167        C  0.21283329  0.05243320  0.29835256     0.34500
C168        C  0.14553368  0.11462164  0.38043700     0.38000
C169        C  0.20871246  0.11492542  0.24696005    -0.05600
C170        C  0.21053546  0.11755040  0.21002750     0.01600
C171        C  0.18305131  0.08932978  0.18944943    -0.05200
C172        C  0.15262195  0.05961796  0.20626943    -0.01400
C173        C  0.15027017  0.05763358  0.24336230    -0.04000
C174        C  0.23768027  0.14322823  0.26796817     0.35300
C175        C  0.12311743  0.03178586  0.18543076     0.38900
C176        C  0.24139416  0.14875433  0.19320441     0.38000
C177        C  0.11826676  0.02809375  0.26063314     0.35000
C178        C  0.13833618  0.10782437  0.30633189     0.35600
C179        C  0.22813737  0.06596145  0.37095056     0.38900
N180        N  0.26612942  0.17327789  0.17949567    -0.39200
N181        N  0.26061315  0.16556046  0.28502737    -0.40800
N182        N  0.09958289  0.00972466  0.16870048    -0.38500
N183        N  0.10761560  0.51608937  0.27798689    -0.40900
N184        N  0.22454832  0.03807692  0.28156129    -0.40700
N185        N  0.24767918  0.05840316  0.38255249    -0.38300
N186        N  0.13003491  0.12574067  0.39623836    -0.39400
N187        N  0.12051833  0.11618667  0.29238847    -0.41000
C188        C  0.36013014  0.24722882  0.31804729    -0.06000
C189        C  0.36964738  0.28057386  0.30290136     0.08200
C190        C  0.37825766  0.31076957  0.32479951    -0.03300
C191        C  0.37732093  0.30751367  0.36174049    -0.01600
C192        C  0.36710750  0.27391348  0.37681463    -0.05200
C193        C  0.35778681  0.24355532  0.35489750     0.01800
C194        C  0.36723683  0.28230754  0.26388850     0.08600
C195        C  0.38744835  0.34489668  0.30934049     0.34500
C196        C  0.34381615  0.20813404  0.37018199     0.38000
C197        C  0.33313285  0.26958737  0.24902963    -0.05600
C198        C  0.32933247  0.26664781  0.21215131     0.01600
C199        C  0.35965342  0.27504542  0.18948883    -0.05200
C200        C  0.39431604  0.28944306  0.20485595    -0.01400
C201        C  0.39791596  0.29298247  0.24179575    -0.04000
C202        C  0.30148778  0.25796858  0.27208548     0.35300
C203        C  0.42676937  0.30127649  0.18302536     0.38900
C204        C  0.29368960  0.25411556  0.19832076     0.38000
C205        C  0.43307900  0.30649285  0.25728760     0.35000
C206        C  0.35239426  0.21672486  0.29527527     0.35600
C207        C  0.38570935  0.33833065  0.38438672     0.38900
N208        N  0.26508727  0.24436156  0.18785620    -0.39200
N209        N  0.27640657  0.24850764  0.29067690    -0.40800
N210        N  0.45274937  0.31062112  0.16580685    -0.38500
N211        N  0.46109382  0.31716875  0.26964783    -0.40900
N212        N  0.39475493  0.37219494  0.29712290    -0.40700
N213        N  0.39216499  0.36271676  0.40266342    -0.38300
N214        N  0.33183594  0.17966689  0.38223027    -0.39400
N215        N  0.34667667  0.19314702  0.27618749    -0.41000
C216        C  0.38593264  0.13466174  0.32773779    -0.06000
C217        C  0.36893001  0.10251303  0.30740985     0.08200
C218        C  0.35007818  0.06847199  0.32397585    -0.03300
C219        C  0.34899003  0.06648186  0.36095927    -0.01600
C220        C  0.36556508  0.09872436  0.38173866    -0.05200
C221        C  0.38373350  0.13293491  0.36471791     0.01800
C222        C  0.36750547  0.10468457  0.26856550     0.08600
C223        C  0.33094802  0.03548710  0.30286106     0.34500
C224        C  0.39891986  0.16662569  0.38482944     0.38000
C225        C  0.39397810  0.10433965  0.24612431    -0.05600
C226        C  0.39205541  0.10639346  0.20937112     0.01600
C227        C  0.36351392  0.10851586  0.19519618    -0.05200
C228        C  0.33727700  0.10912119  0.21780506    -0.01400
C229        C  0.33949482  0.10759136  0.25441120    -0.04000
C230        C  0.42320402  0.10213092  0.26091696     0.35300
C231        C  0.30818964  0.11167083  0.20328095     0.39200
C232        C  0.41872913  0.10529590  0.18610456     0.38000
C233        C  0.31367614  0.11002642  0.27785559     0.35000
C234        C  0.40495139  0.16962984  0.31039860     0.35600
C235        C  0.33129019  0.03110495  0.37731593     0.38900
N236        N  0.43992671  0.10433658  0.16746393    -0.39200
N237        N  0.44659245  0.10044033  0.27269087    -0.40800
N238        N  0.28497074  0.11331374  0.19113595    -0.38500
N239        N  0.29399330  0.11278169  0.29716350    -0.40900
N240        N  0.31539933  0.00921044  0.28605106    -0.40700
N241        N  0.31703172  0.00294689  0.39050728    -0.38300
N242        N  0.41098072  0.19362938  0.40060204    -0.39400
N243        N  0.42015877  0.19747554  0.29653727    -0.41000
C244        C  0.09669794  0.19336001  0.24773811    -0.06000
C245        C  0.06914796  0.19363418  0.26813377     0.08200
C246        C  0.04058668  0.19355676  0.25140438    -0.03300
C247        C  0.04013815  0.19465594  0.21431965    -0.01600
C248        C  0.06798619  0.19451536  0.19310811    -0.05200
C249        C  0.09549928  0.19226948  0.21064590     0.01800
C250        C  0.07123236  0.19578702  0.30745884     0.08600
C251        C  0.01215031  0.19360120  0.27275003     0.34500
C252        C  0.12279042  0.18831143  0.19133453     0.38000
C253        C  0.08264572  0.22911492  0.32497288    -0.05600
C254        C  0.08573426  0.23176807  0.36183085     0.01600
C255        C  0.07772771  0.20104922  0.38137057    -0.05200
C256        C  0.06494202  0.16734477  0.36410060    -0.01400
C257        C  0.06202620  0.16477699  0.32714771    -0.04000
C258        C  0.09098807  0.26057098  0.30482335     0.35300
C259        C  0.05293517  0.13501076  0.38460355     0.38900
C260        C  0.09704615  0.26608000  0.37962964     0.38000
C261        C  0.04915413  0.13021123  0.30935838     0.35000
C262        C  0.12736277  0.19587102  0.26514080     0.35600
C263        C  0.01116911  0.19696186  0.19891151     0.38900
N264        N  0.10601105  0.29342694  0.39381449    -0.39200
N265        N  0.09708080  0.28516873  0.28816657    -0.40800
N266        N  0.04284385  0.10922298  0.40115647    -0.38500
N267        N  0.03895525  0.10265901  0.29510099    -0.40900
N268        N  0.48978305  0.19396892  0.28998497    -0.40700
N269        N  0.48801430  0.19901550  0.18702300    -0.38300
N270        N  0.14472100  0.18509383  0.17639226    -0.39400
N271        N  0.15200226  0.19839801  0.27905630    -0.41000
C272        C  0.06079788  0.38889356  0.24338373    -0.06000
C273        C  0.08314050  0.38030681  0.26163377     0.08200
C274        C  0.10678097  0.37232916  0.24278140    -0.03300
C275        C  0.10664837  0.37093404  0.20579880    -0.01600
C276        C  0.08414639  0.37924691  0.18754426    -0.05200
C277        C  0.06137124  0.38845127  0.20628289     0.01800
C278        C  0.08055042  0.37773898  0.30075706     0.08600
C279        C  0.13139168  0.36582365  0.26153773     0.34500
C280        C  0.03830098  0.39702710  0.18738924     0.38000
C281        C  0.05836008  0.34363622  0.31666325    -0.05600
C282        C  0.05716339  0.34053859  0.35355898     0.01600
C283        C  0.07868296  0.37179148  0.37496629    -0.05200
C284        C  0.09980117  0.40623770  0.35866245    -0.01400
C285        C  0.10100342  0.40899769  0.32172279    -0.04000
C286        C  0.03742557  0.31147331  0.29478937     0.35300
C287        C  0.11971400  0.43924112  0.37963083     0.38900
C288        C  0.03421062  0.30480440  0.36886366     0.38000
C289        C  0.12416183  0.44393407  0.30507266     0.35000
C290        C  0.03732555  0.39816652  0.26284687     0.35600
C291        C  0.12849581  0.35947552  0.18646534     0.38900
N292        N  0.51555786  0.27623216  0.38077403    -0.39200
N293        N  0.52097186  0.28583414  0.27731934    -0.40800
N294        N  0.13564469  0.46566249  0.39618621    -0.38500
N295        N  0.14289709  0.47173262  0.29177434    -0.40900
N296        N  0.15118067  0.36089473  0.27659301    -0.40700
N297        N  0.14549950  0.34996198  0.17085907    -0.38300
N298        N  0.01985934  0.40385342  0.17233934    -0.39400
N299        N  0.01870470  0.40568079  0.27843050    -0.41000
C300        C  0.27808069  0.36788521  0.24501575    -0.06000
C301        C  0.26364206  0.38487228  0.26580324     0.08200
C302        C  0.24745286  0.40159470  0.24975352    -0.03300
C303        C  0.24348676  0.39939298  0.21295196    -0.01600
C304        C  0.25611995  0.38041604  0.19164056    -0.05200
C305        C  0.27480977  0.36595791  0.20813444     0.01800
C306        C  0.26259136  0.38246031  0.30490670     0.08600
C307        C  0.23384773  0.42020023  0.27151547     0.34500
C308        C  0.29152595  0.34960655  0.18757389     0.38000
C309        C  0.28922352  0.41139257  0.32528434    -0.05600
C310        C  0.28679410  0.40952201  0.36231778     0.01600
C311        C  0.25743024  0.37873443  0.37915425    -0.05200
C312        C  0.23174214  0.34899981  0.35842148    -0.01400
C313        C  0.23412238  0.35114582  0.32145999    -0.04000
C314        C  0.31895110  0.44316651  0.30805688     0.35300
C315        C  0.20243063  0.31624778  0.37478653     0.38900
C316        C  0.31531274  0.43874623  0.38297031     0.38000
C317        C  0.20673115  0.32144063  0.30025900     0.35000
C318        C  0.29583356  0.35181190  0.26189130     0.35600
C319        C  0.22548860  0.41615252  0.19791766     0.38900
N320        N  0.33818798  0.46197150  0.39939673    -0.39200
N321        N  0.34268446  0.46853908  0.29434815    -0.40800
N322        N  0.17942748  0.28983390  0.38775285    -0.38500
N323        N  0.18497167  0.29792213  0.28319440    -0.40900
N324        N  0.22290561  0.43484680  0.28897656    -0.40700
N325        N  0.21136242  0.42997754  0.18642382    -0.38300
N326        N  0.30493319  0.33651053  0.17140401    -0.39400
N327        N  0.30990275  0.33899356  0.27548813    -0.41000
C328        C  0.24917208  0.37501163  0.65281262     0.79700
N329        N  0.24453083  0.39883548  0.63453079    -0.78600
C330        C  0.23623042  0.39301542  0.59996191     0.82200
N331        N  0.23440504  0.36443174  0.58304014    -0.78500
C332        C  0.24017004  0.34121300  0.60034856     0.82300
N333        N  0.24661635  0.34578836  0.63537751    -0.80200
C334        C  0.25254293  0.37840176  0.91808001     0.79700
N335        N  0.24270016  0.34791548  0.93657363    -0.78600
C336        C  0.23528507  0.34660325  0.97162120     0.82200
N337        N  0.23919575  0.37649277  0.98843287    -0.78500
C338        C  0.25015571  0.40750098  0.97046588     0.82300
N339        N  0.25577861  0.40803435  0.93512683    -0.80200
C340        C  0.08030826  0.36838374  0.91382139     0.79700
N341        N  0.11212528  0.39006750  0.93095221    -0.78600
C342        C  0.11422188  0.38585150  0.96585830     0.82200
N343        N  0.08432317  0.36014517  0.98372006    -0.78500
C344        C  0.05241392  0.33877227  0.96717277     0.82300
N345        N  0.05053262  0.34265400  0.93222238    -0.80200
C346        C  0.08421918  0.37751929  0.64884963     0.79700
N347        N  0.05942684  0.34627241  0.63228120    -0.78600
C348        C  0.06211424  0.34296463  0.59691105     0.82200
N349        N  0.08865876  0.37106637  0.57825571    -0.78500
C350        C  0.11280854  0.40247622  0.59444717     0.82300
N351        N  0.11151120  0.40541165  0.63000644    -0.80200
C352        C  0.06978181  0.19891676  0.65351943     0.79700
N353        N  0.04156550  0.19636271  0.63576506    -0.78600
C354        C  0.04485288  0.20294348  0.60066693     0.82200
N355        N  0.07609609  0.21222997  0.58310575    -0.78500
C356        C  0.10387508  0.21408334  0.59994144     0.82300
N357        N  0.10072091  0.20744375  0.63492749    -0.80200
C358        C  0.08178081  0.20399360  0.91995223     0.79700
N359        N  0.10965111  0.20314534  0.93476598    -0.78600
C360        C  0.11376675  0.20710982  0.97018247     0.82200
N361        N  0.09047626  0.21264507  0.99030699    -0.78500
C362        C  0.06272329  0.21351265  0.97573647     0.82300
N363        N  0.05859479  0.20943954  0.94042607    -0.80200
C364        C  0.36492394  0.09681769  0.92089498     0.79700
N365        N  0.33513735  0.07046684  0.93876558    -0.78600
C366        C  0.33536741  0.06855600  0.97432295     0.82200
N367        N  0.36522337  0.09426771  0.99225377    -0.78500
C368        C  0.39469135  0.12141184  0.97462419     0.82300
N369        N  0.39416123  0.12222938  0.93912062    -0.80200
C370        C  0.36057547  0.11009838  0.65682875     0.79700
N371        N  0.38565123  0.14024588  0.63858871    -0.78600
C372        C  0.37992944  0.14303913  0.60423641     0.82200
N373        N  0.35014037  0.11606777  0.58862169    -0.78500
C374        C  0.32605488  0.08579248  0.60588350     0.82300
N375        N  0.33103398  0.08247659  0.64024468    -0.80200
C376        C  0.35507074  0.26759538  0.65043006     0.79700
N377        N  0.37711022  0.25894439  0.63179715    -0.78600
C378        C  0.37256018  0.25121522  0.59674131     0.82200
N379        N  0.34621273  0.25250795  0.58022050    -0.78500
C380        C  0.32446754  0.26147280  0.59804700     0.82300
N381        N  0.32849900  0.26863602  0.63313809    -0.80200
C382        C  0.36600187  0.27043025  0.91548314     0.79700
N383        N  0.33470129  0.26039326  0.93407927    -0.78600
C384        C  0.33313155  0.25537168  0.96934171     0.82200
N385        N  0.36316473  0.26142695  0.98593447    -0.78500
C386        C  0.39475348  0.27229096  0.96773527     0.82300
N387        N  0.39577509  0.27564823  0.93222628    -0.80200
C388        C  0.19502920  0.09836603  0.91572638     0.79700
N389        N  0.19384253  0.12604113  0.93254782    -0.78600
C390        C  0.20002837  0.13206176  0.96757405     0.82200
N391        N  0.20926364  0.11140875  0.98553719    -0.78500
C392        C  0.21129274  0.08421983  0.96913024     0.82300
N393        N  0.20319968  0.07726908  0.93454311    -0.80200
C394        C  0.18664385  0.09062806  0.65047507     0.79700
N395        N  0.18580899  0.06276591  0.63210446    -0.78600
C396        C  0.19027307  0.06470440  0.59655003     0.82200
N397        N  0.19764537  0.09499205  0.57974684    -0.78500
C398        C  0.19923675  0.12296962  0.59776941     0.82300
N399        N  0.19309752  0.12063959  0.63312254    -0.80200
O400        O  0.19616002  0.30147141  0.01294374    -0.80600
O401        O  0.22196720  0.19320074  0.98447679    -0.80600
O402        O  0.28031130  0.25768703  0.98614155    -0.80700
O403        O  0.13507329  0.18560953  0.01336312    -0.80600
O404        O  0.28873619  0.21724312  0.01186769    -0.80700
O405        O  0.17585652  0.23420155  0.98497814    -0.80600
O406        O  0.17400827  0.15073889  0.01261402    -0.80600
O407        O  0.23979352  0.29564858  0.98732042    -0.80700
C408        C  0.22329295  0.31333230  0.99164652     1.09100
C409        C  0.19682607  0.16033194  0.98702493     1.08900
C410        C  0.29933869  0.24285090  0.98996147     1.09100
C411        C  0.14364771  0.20727224  0.98794365     1.09000
O412        O  0.14548900  0.23898670  0.55194092    -0.80600
O413        O  0.26610871  0.22848151  0.57702775    -0.80700
O414        O  0.26271041  0.31648695  0.55878106    -0.80600
O415        O  0.18757785  0.16870547  0.58690535    -0.80600
O416        O  0.22610658  0.16496952  0.55108983    -0.80700
O417        O  0.20761856  0.28275867  0.57732250    -0.80600
O418        O  0.15012384  0.20244869  0.58712696    -0.80600
O419        O  0.29987600  0.28234700  0.55736487    -0.80700
Co420      Co  0.19542690  0.26024841  0.53046231     1.51500
Co421      Co  0.24564129  0.21424855  0.53013889     1.51700
Co422      Co  0.26390073  0.28124929  0.52450595     1.51600
Co423      Co  0.16502163  0.18030896  0.54943236     1.51500
O424        O  0.21306043  0.22990526  0.54342243    -1.42600
C425        C  0.13524143  0.21961245  0.57931146     1.09000
C426        C  0.29458968  0.25855851  0.57893998     1.09100
C427        C  0.23767162  0.31119812  0.58006966     1.09000
C428        C  0.20546918  0.15428822  0.57833177     1.09000
O429        O  0.04565181  0.30145720  0.54956041    -0.80600
O430        O  0.39440139  0.17295685  0.55102991    -0.80600
O431        O  0.43072021  0.26135982  0.58550149    -0.80700
O432        O  0.49048867  0.17364686  0.56861781    -0.80600
O433        O  0.38990576  0.23127256  0.54498005    -0.80700
O434        O  0.02188065  0.23400087  0.57236628    -0.80600
O435        O  0.43952017  0.19066245  0.58796507    -0.80600
O436        O  0.50323217  0.29322213  0.58702742    -0.80700
C437        C  0.03618680  0.31014365  0.57801392     1.09100
C438        C  0.40600043  0.17189184  0.58111634     1.08900
C439        C  0.39850719  0.24620551  0.57542970     1.09100
C440        C  0.01682059  0.20298322  0.58092774     1.09000
O441        O  0.05846448  0.25667306  0.01058536    -0.80600
O442        O  0.42999912  0.24735220  0.97718025    -0.80700
O443        O  0.50956622  0.31838144  0.01427408    -0.80600
O444        O  0.43420332  0.15360281  0.02310349    -0.80600
O445        O  0.43057147  0.18493041  0.98199267    -0.80700
O446        O  0.01440333  0.27745899  0.98243165    -0.80600
O447        O  0.50689596  0.20386034  0.00355804    -0.80600
O448        O  0.43507474  0.28837404  0.01526869    -0.80700
Co449      Co  0.01479425  0.25341168  0.52550065     1.51500
Co450      Co  0.41408495  0.21056966  0.51367617     1.51700
Co451      Co  0.46958592  0.28767196  0.55016354     1.51600
Co452      Co  0.47280016  0.20016887  0.54718488     1.51500
O453        O  0.46365053  0.23964967  0.53427070    -1.42600
C454        C  0.04174748  0.22499799  0.99757346     1.09000
C455        C  0.42397731  0.27189524  0.98581346     1.09100
C456        C  0.02185905  0.30973337  0.98719379     1.09000
C457        C  0.42254679  0.15445772  0.99326590     1.09000
O458        O  0.21496100  0.40878877  0.55123603    -0.80600
O459        O  0.22440861  0.04089257  0.57652100    -0.80600
O460        O  0.28322336  0.02401319  0.59271654    -0.80700
O461        O  0.13991670  0.44679251  0.55009015    -0.80600
O462        O  0.28945108  0.06589738  0.55674212    -0.80700
O463        O  0.17198462  0.42880657  0.57342552    -0.80600
O464        O  0.17334084  0.02019979  0.55214091    -0.80600
O465        O  0.24796833  0.45137879  0.58939997    -0.80700
C466        C  0.23199916  0.41861609  0.57986754     1.09100
C467        C  0.19473713  0.03863264  0.57611854     1.08900
C468        C  0.29722872  0.05703305  0.58508251     1.09100
C469        C  0.14356417  0.42909822  0.57345678     1.09000
O470        O  0.15716653  0.39518678  0.00831276    -0.80600
O471        O  0.27134390  0.03478610  0.98814306    -0.80700
O472        O  0.27089331  0.45124674  0.01655012    -0.80600
O473        O  0.20561620  0.02717001  0.98367956    -0.80600
O474        O  0.24471301  0.07701223  0.01323846    -0.80700
O475        O  0.22652003  0.44434264  0.98454537    -0.80600
O476        O  0.16679099  0.44417621  0.98070034    -0.80600
O477        O  0.30761668  0.02700771  0.02082384    -0.80700
Co478      Co  0.19742766  0.43774157  0.52802264     1.51500
Co479      Co  0.24376324  0.03569905  0.53102139     1.51700
Co480      Co  0.27507090  0.48846687  0.55311144     1.51600
Co481      Co  0.17881289  0.48448690  0.51814071     1.51500
O482        O  0.22776978  0.48700872  0.54176678    -1.42600
C483        C  0.14773717  0.40928132  0.98534082     1.09000
C484        C  0.30277433  0.04075083  0.99411286     1.09100
C485        C  0.25140614  0.43816734  0.98938186     1.09000
C486        C  0.22097892  0.06192145  0.98949696     1.09000
C487        C  0.16048718  0.09685438  0.82345614    -0.06000
C488        C  0.17775614  0.08251762  0.80294527     0.08200
C489        C  0.19782597  0.07013940  0.81940297    -0.03300
C490        C  0.20376679  0.07536576  0.85595039    -0.01600
C491        C  0.18775383  0.09136452  0.87694063    -0.05200
C492        C  0.16492272  0.10085355  0.86024731     0.01800
C493        C  0.17877800  0.08477395  0.76369981     0.08600
C494        C  0.21280083  0.05238899  0.79834404     0.34500
C495        C  0.14553661  0.11460549  0.88044315     0.38000
C496        C  0.20868650  0.11491384  0.74696782    -0.05600
C497        C  0.21050883  0.11754981  0.71003591     0.01600
C498        C  0.18302604  0.08933386  0.68945289    -0.05200
C499        C  0.15260205  0.05961181  0.70626784    -0.01400
C500        C  0.15025659  0.05760990  0.74335949    -0.04000
C501        C  0.23765013  0.14321524  0.76798108     0.35300
C502        C  0.12309511  0.03178752  0.68542568     0.38900
C503        C  0.24136679  0.14875866  0.69321816     0.38000
C504        C  0.11826754  0.02804773  0.76062500     0.35000
C505        C  0.13830864  0.10778406  0.80634353     0.35600
C506        C  0.22810580  0.06590376  0.87094204     0.38900
N507        N  0.26610162  0.17328638  0.67951371    -0.39200
N508        N  0.26058027  0.16554642  0.78504361    -0.40800
N509        N  0.09955773  0.00973409  0.66869255    -0.38500
N510        N  0.10752780  0.51596989  0.77795293    -0.40900
N511        N  0.22450909  0.03802787  0.78155042    -0.40700
N512        N  0.24764233  0.05833670  0.88254055    -0.38300
N513        N  0.13005225  0.12574031  0.89624469    -0.39400
N514        N  0.12048252  0.11614025  0.79240674    -0.41000
C515        C  0.36014831  0.24720990  0.81805586    -0.06000
C516        C  0.36964903  0.28055006  0.80291015     0.08200
C517        C  0.37825131  0.31074461  0.82480723    -0.03300
C518        C  0.37733041  0.30749413  0.86174719    -0.01600
C519        C  0.36712670  0.27389702  0.87682090    -0.05200
C520        C  0.35781371  0.24353979  0.85490563     0.01800
C521        C  0.36723627  0.28228027  0.76389843     0.08600
C522        C  0.38741230  0.34486311  0.80934987     0.34500
C523        C  0.34386349  0.20812285  0.87019159     0.38000
C524        C  0.33313418  0.26957303  0.74904226    -0.05600
C525        C  0.32933200  0.26663796  0.71216418     0.01600
C526        C  0.35964568  0.27501408  0.68949913    -0.05200
C527        C  0.39430540  0.28938343  0.70486591    -0.01400
C528        C  0.39790950  0.29293131  0.74180496    -0.04000
C529        C  0.30149161  0.25795763  0.77210102     0.35300
C530        C  0.42675277  0.30117490  0.68303822     0.38900
C531        C  0.29369373  0.25413176  0.69833709     0.38000
C532        C  0.43307063  0.30642649  0.75729648     0.35000
C533        C  0.35241471  0.21670536  0.79528523     0.35600
C534        C  0.38573386  0.33831544  0.88439369     0.38900
N535        N  0.26509519  0.24439896  0.68787589    -0.39200
N536        N  0.27641283  0.24849703  0.79069583    -0.40800
N537        N  0.45272965  0.31048440  0.66582546    -0.38500
N538        N  0.46108380  0.31709215  0.76965637    -0.40900
N539        N  0.39469200  0.37215491  0.79713704    -0.40700
N540        N  0.39220584  0.36270502  0.90267220    -0.38300
N541        N  0.33190046  0.17965833  0.88223986    -0.39400
N542        N  0.34669675  0.19312460  0.77620130    -0.41000
C543        C  0.38597134  0.13464775  0.82773014    -0.06000
C544        C  0.36896138  0.10250033  0.80740057     0.08200
C545        C  0.35010863  0.06845900  0.82396530    -0.03300
C546        C  0.34901821  0.06646689  0.86094889    -0.01600
C547        C  0.36559912  0.09870788  0.88173094    -0.05200
C548        C  0.38377611  0.13291946  0.86471067     0.01800
C549        C  0.36752380  0.10467397  0.76855759     0.08600
C550        C  0.33097656  0.03547609  0.80284818     0.34500
C551        C  0.39897159  0.16661083  0.88482241     0.38000
C552        C  0.39398949  0.10433093  0.74610362    -0.05600
C553        C  0.39205839  0.10639441  0.70935281     0.01600
C554        C  0.36351470  0.10852309  0.69519255    -0.05200
C555        C  0.33728215  0.10912199  0.71781365    -0.01400
C556        C  0.33950644  0.10757950  0.75441743    -0.04000
C557        C  0.42321365  0.10210820  0.76088029     0.35300
C558        C  0.30819497  0.11168303  0.70330541     0.39200
C559        C  0.41872653  0.10530191  0.68607313     0.38000
C560        C  0.31368247  0.10999347  0.77787317     0.35000
C561        C  0.40498949  0.16961671  0.81039254     0.35600
C562        C  0.33130102  0.03108861  0.87730336     0.38900
N563        N  0.43991974  0.10434784  0.66742128    -0.39200
N564        N  0.44659959  0.10040420  0.77264091    -0.40800
N565        N  0.28497688  0.11333831  0.69117559    -0.38500
N566        N  0.29399091  0.11272825  0.79718686    -0.40900
N567        N  0.31542713  0.00920245  0.78603426    -0.40700
N568        N  0.31702504  0.00292997  0.89049472    -0.38300
N569        N  0.41103947  0.19361535  0.90059466    -0.39400
N570        N  0.42019538  0.19746364  0.79653347    -0.41000
C571        C  0.09668694  0.19334365  0.74773402    -0.06000
C572        C  0.06915381  0.19364383  0.76813577     0.08200
C573        C  0.04060517  0.19359611  0.75141254    -0.03300
C574        C  0.04015790  0.19470633  0.71432867    -0.01600
C575        C  0.06798454  0.19453147  0.69311202    -0.05200
C576        C  0.09547755  0.19224687  0.71064262     0.01800
C577        C  0.07123743  0.19578137  0.80746073     0.08600
C578        C  0.01218139  0.19365862  0.77276393     0.34500
C579        C  0.12273080  0.18823450  0.69132319     0.38000
C580        C  0.08265499  0.22910341  0.82498919    -0.05600
C581        C  0.08573541  0.23173839  0.86184761     0.01600
C582        C  0.07771999  0.20100869  0.88137292    -0.05200
C583        C  0.06493564  0.16731160  0.86408892    -0.01400
C584        C  0.06202244  0.16476036  0.82713585    -0.04000
C585        C  0.09100946  0.26057269  0.80485561     0.35300
C586        C  0.05293125  0.13496923  0.88457744     0.38900
C587        C  0.09704891  0.26604330  0.87966260     0.38000
C588        C  0.04914173  0.13019998  0.80933210     0.35000
C589        C  0.12734630  0.19583514  0.76512872     0.35600
C590        C  0.01121612  0.19706267  0.69892651     0.38900
N591        N  0.10601427  0.29338357  0.89386176    -0.39200
N592        N  0.09711266  0.28518396  0.78821519    -0.40800
N593        N  0.04284387  0.10917497  0.90111883    -0.38500
N594        N  0.03893540  0.10265249  0.79506225    -0.40900
N595        N  0.48980476  0.19400504  0.79000917    -0.40700
N596        N  0.48799208  0.19900530  0.68703844    -0.38300
N597        N  0.14462945  0.18497108  0.67637382    -0.39400
N598        N  0.15198257  0.19834886  0.77903839    -0.41000
C599        C  0.06081663  0.38894870  0.74338831    -0.06000
C600        C  0.08315541  0.38035839  0.76164070     0.08200
C601        C  0.10679006  0.37237140  0.74278999    -0.03300
C602        C  0.10665721  0.37097327  0.70580746    -0.01600
C603        C  0.08415808  0.37928832  0.68755089    -0.05200
C604        C  0.06138850  0.38850129  0.70628733     0.01800
C605        C  0.08055537  0.37777994  0.80076344     0.08600
C606        C  0.13139020  0.36585209  0.76154802     0.34500
C607        C  0.03831859  0.39707566  0.68739097     0.38000
C608        C  0.05837003  0.34366995  0.81665819    -0.05600
C609        C  0.05717272  0.34055828  0.85355201     0.01600
C610        C  0.07867403  0.37180649  0.87497016    -0.05200
C611        C  0.09978202  0.40626039  0.85867933    -0.01400
C612        C  0.10099934  0.40903250  0.82174003    -0.04000
C613        C  0.03744810  0.31151285  0.79477375     0.35300
C614        C  0.11967191  0.43925746  0.87966110     0.38900
C615        C  0.03424757  0.30481339  0.86884338     0.38000
C616        C  0.12417564  0.44397218  0.80510213     0.35000
C617        C  0.03734336  0.39822242  0.76284850     0.35600
C618        C  0.12849966  0.35950712  0.68647652     0.38900
N619        N  0.51554237  0.27624550  0.88074762    -0.39200
N620        N  0.52100918  0.28586832  0.77729503    -0.40800
N621        N  0.13558300  0.46567357  0.89622770    -0.38500
N622        N  0.14293113  0.47177291  0.79181488    -0.40900
N623        N  0.15117082  0.36091133  0.77660358    -0.40700
N624        N  0.14549976  0.34998761  0.67087298    -0.38300
N625        N  0.01987668  0.40389948  0.67233814    -0.39400
N626        N  0.01872100  0.40573711  0.77842849    -0.41000
C627        C  0.27807109  0.36788529  0.74501202    -0.06000
C628        C  0.26363869  0.38487519  0.76580364     0.08200
C629        C  0.24745502  0.40160610  0.74976000    -0.03300
C630        C  0.24349306  0.39941522  0.71295837    -0.01600
C631        C  0.25612321  0.38043917  0.69164180    -0.05200
C632        C  0.27480139  0.36596546  0.70813145     0.01800
C633        C  0.26258260  0.38245067  0.80490508     0.08600
C634        C  0.23384734  0.42020491  0.77152884     0.34500
C635        C  0.29150007  0.34959746  0.68756906     0.38000
C636        C  0.28921126  0.41137682  0.82529038    -0.05600
C637        C  0.28677631  0.40949374  0.86232252     0.01600
C638        C  0.25741570  0.37869540  0.87914953    -0.05200
C639        C  0.23173636  0.34896365  0.85840819    -0.01400
C640        C  0.23411366  0.35112862  0.82144821    -0.04000
C641        C  0.31893676  0.44316054  0.80807273     0.35300
C642        C  0.20243824  0.31619449  0.87476145     0.38900
C643        C  0.31528360  0.43871965  0.88298360     0.38000
C644        C  0.20671439  0.32143944  0.80023869     0.35000
C645        C  0.29581265  0.35179744  0.76188281     0.35600
C646        C  0.22549784  0.41618029  0.69792965     0.38900
N647        N  0.33814791  0.46194696  0.89941779    -0.39200
N648        N  0.34266793  0.46854199  0.79437306    -0.40800
N649        N  0.17944619  0.28976508  0.88771470    -0.38500
N650        N  0.18494661  0.29793645  0.78316661    -0.40900
N651        N  0.22290240  0.43484442  0.78899692    -0.40700
N652        N  0.21137286  0.43000854  0.68644042    -0.38300
N653        N  0.30489050  0.33648504  0.67139844    -0.39400
N654        N  0.30987224  0.33896668  0.77547499    -0.41000
C655        C  0.23782427  0.86739972  0.15248754     0.79700
N656        N  0.23610986  0.89322293  0.13452919    -0.78600
C657        C  0.23134166  0.89015559  0.09929093     0.82200
N658        N  0.23031645  0.86234139  0.08146291    -0.78500
C659        C  0.23330253  0.83720774  0.09862656     0.82300
N660        N  0.23588652  0.83898706  0.13411581    -0.80200
C661        C  0.24459125  0.87616902  0.41832925     0.79700
N662        N  0.23496354  0.84575319  0.43659989    -0.78600
C663        C  0.22988554  0.84502119  0.47188863     0.82200
N664        N  0.23568788  0.87552915  0.48918371    -0.78500
C665        C  0.24649701  0.90664037  0.47119702     0.82300
N666        N  0.24991026  0.90651215  0.43557390    -0.80200
C667        C  0.07809071  0.87068375  0.41338835     0.79700
N668        N  0.11005089  0.89227491  0.43050655    -0.78600
C669        C  0.11241065  0.88724765  0.46526641     0.82200
N670        N  0.08277490  0.86082231  0.48282651    -0.78500
C671        C  0.05087868  0.83965062  0.46630708     0.82300
N672        N  0.04866075  0.84453230  0.43175723    -0.80200
C673        C  0.08110066  0.87623877  0.14850237     0.79700
N674        N  0.05670740  0.84513432  0.13147561    -0.78600
C675        C  0.05969193  0.84245174  0.09605194     0.82200
N676        N  0.08610416  0.87103778  0.07780830    -0.78500
C677        C  0.10986745  0.90229328  0.09448398     0.82300
N678        N  0.10822345  0.90465560  0.13007497    -0.80200
C679        C  0.06570314  0.69488777  0.15199818     0.79700
N680        N  0.03836126  0.69551355  0.13550492    -0.78600
C681        C  0.04125723  0.70204692  0.10027581     0.82200
N682        N  0.07148597  0.70902879  0.08195883    -0.78500
C683        C  0.09829983  0.70796954  0.09772166     0.82300
N684        N  0.09508955  0.70019486  0.13245695    -0.80200
C685        C  0.07413645  0.69665115  0.41836996     0.79700
N686        N  0.10251294  0.69641046  0.43288100    -0.78600
C687        C  0.10861728  0.70299889  0.46791647     0.82200
N688        N  0.08676355  0.71057283  0.48806206    -0.78500
C689        C  0.05845118  0.71085491  0.47402159     0.82300
N690        N  0.05227143  0.70397401  0.43906160    -0.80200
C691        C  0.36825334  0.59256171  0.41788464     0.79700
N692        N  0.33853941  0.56605591  0.43578913    -0.78600
C693        C  0.33677699  0.56634515  0.47149171     0.82200
N694        N  0.36471959  0.59396890  0.48972233    -0.78500
C695        C  0.39396787  0.62136981  0.47240301     0.82300
N696        N  0.39518643  0.62045782  0.43673383    -0.80200
C697        C  0.35983633  0.61222256  0.15511345     0.79700
N698        N  0.38356647  0.64326267  0.13735521    -0.78600
C699        C  0.37715685  0.64616762  0.10323090     0.82200
N700        N  0.34808172  0.61853322  0.08748212    -0.78500
C701        C  0.32562906  0.58733519  0.10408246     0.82300
N702        N  0.33141373  0.58370407  0.13815808    -0.80200
C703        C  0.35121479  0.76760101  0.14821431     0.79700
N704        N  0.37403661  0.75991758  0.12967827    -0.78600
C705        C  0.37024576  0.75310716  0.09442581     0.82200
N706        N  0.34405111  0.75460770  0.07772624    -0.78500
C707        C  0.32168557  0.76281098  0.09557623     0.82300
N708        N  0.32478255  0.76875584  0.13085440    -0.80200
C709        C  0.36505963  0.77276614  0.41365565     0.79700
N710        N  0.33371062  0.76283948  0.43221314    -0.78600
C711        C  0.33193496  0.75773418  0.46746957     0.82200
N712        N  0.36185659  0.76356810  0.48414892    -0.78500
C713        C  0.39350345  0.77440137  0.46604922     0.82300
N714        N  0.39467751  0.77785044  0.43059010    -0.80200
C715        C  0.20278964  0.60206792  0.41238280     0.79700
N716        N  0.19970304  0.62836219  0.42972173    -0.78600
C717        C  0.20171183  0.63153452  0.46525311     0.82200
N718        N  0.20916203  0.60956969  0.48345884    -0.78500
C719        C  0.21316612  0.58371209  0.46648092     0.82300
N720        N  0.20900628  0.57956350  0.43117639    -0.80200
C721        C  0.19219632  0.59219583  0.14703433     0.79700
N722        N  0.19097122  0.56433586  0.12855096    -0.78600
C723        C  0.19292310  0.56535200  0.09296581     0.82200
N724        N  0.19839117  0.59490494  0.07606695    -0.78500
C725        C  0.20027407  0.62291275  0.09434184     0.82300
N726        N  0.19666344  0.62147345  0.12989214    -0.80200
O727        O  0.19031657  0.79849025  0.51209439    -0.80600
O728        O  0.22127112  0.69230182  0.48202897    -0.80600
O729        O  0.27764173  0.75806278  0.48345509    -0.80700
O730        O  0.13153541  0.68135953  0.50966863    -0.80600
O731        O  0.28814019  0.71960784  0.51035744    -0.80700
O732        O  0.17087010  0.73174367  0.48269547    -0.80600
O733        O  0.17334166  0.64875029  0.50936064    -0.80600
O734        O  0.23395568  0.79337558  0.48550189    -0.80700
C735        C  0.21774094  0.81121878  0.49104116     1.09100
C736        C  0.19704816  0.65906075  0.48452373     1.08900
C737        C  0.29783193  0.74456045  0.48788332     1.09100
C738        C  0.13920741  0.70380446  0.48511104     1.09000
O739        O  0.13984992  0.73399712  0.04972994    -0.80600
O740        O  0.26309632  0.72929764  0.07514395    -0.80700
O741        O  0.25659449  0.81416489  0.05620281    -0.80600
O742        O  0.18547789  0.66634774  0.08348511    -0.80600
O743        O  0.22626581  0.66554837  0.04851051    -0.80700
O744        O  0.20213357  0.77857088  0.07571701    -0.80600
O745        O  0.14504540  0.69699722  0.08376450    -0.80600
O746        O  0.29643311  0.78257598  0.05437226    -0.80700
Co747      Co  0.19009613  0.75695856  0.02852955     1.51500
Co748      Co  0.24378841  0.71432796  0.02785379     1.51700
Co749      Co  0.25940644  0.77998770  0.02184789     1.51600
Co750      Co  0.16216592  0.67690918  0.04588724     1.51500
O751        O  0.20919679  0.72753085  0.04030835    -1.42600
C752        C  0.12957848  0.71375787  0.07649213     1.09000
C753        C  0.29154981  0.75940493  0.07650354     1.09100
C754        C  0.23153674  0.80784103  0.07790264     1.09000
C755        C  0.20502662  0.65366394  0.07520435     1.09000
O756        O  0.04368021  0.80138064  0.04824603    -0.80600
O757        O  0.39176144  0.67460414  0.04929121    -0.80600
O758        O  0.42835133  0.76245367  0.08370374    -0.80700
O759        O  0.48652645  0.67387233  0.06851350    -0.80600
O760        O  0.38784759  0.73307293  0.04282246    -0.80700
O761        O  0.01955360  0.73410539  0.07105095    -0.80600
O762        O  0.43672515  0.69292442  0.08654445    -0.80600
O763        O  0.50090767  0.79305407  0.08542896    -0.80700
C764        C  0.03395952  0.80989672  0.07669500     1.09100
C765        C  0.40321379  0.67442652  0.07975571     1.08900
C766        C  0.39628416  0.74790699  0.07331793     1.09100
C767        C  0.01343259  0.70291470  0.08053732     1.09000
O768        O  0.05575042  0.75546691  0.50865602    -0.80600
O769        O  0.42803787  0.74866401  0.47521975    -0.80700
O770        O  0.50792973  0.81894988  0.51304347    -0.80600
O771        O  0.43106357  0.65464243  0.52182591    -0.80600
O772        O  0.42720851  0.68522370  0.47985046    -0.80700
O773        O  0.01284674  0.77812424  0.48094656    -0.80600
O774        O  0.50354348  0.70313123  0.50258370    -0.80600
O775        O  0.43376232  0.78992868  0.51345776    -0.80700
Co776      Co  0.01260215  0.75348450  0.02387777     1.51500
Co777      Co  0.41170560  0.71181224  0.01171275     1.51700
Co778      Co  0.46768326  0.78844221  0.04856932     1.51600
Co779      Co  0.46983977  0.70090796  0.04606286     1.51500
O780        O  0.46148724  0.74049861  0.03223645    -1.42600
C781        C  0.03835415  0.72359074  0.49599113     1.09000
C782        C  0.42248469  0.77351677  0.48399366     1.09100
C783        C  0.02034096  0.81040753  0.48600374     1.09000
C784        C  0.42003657  0.65511262  0.49146321     1.09000
O785        O  0.21150632  0.90814748  0.05133303    -0.80600
O786        O  0.22771070  0.54274536  0.07222707    -0.80600
O787        O  0.28525939  0.52505042  0.09075185    -0.80700
O788        O  0.13748687  0.94713637  0.05065104    -0.80600
O789        O  0.29194020  0.56578520  0.05306217    -0.80700
O790        O  0.16927599  0.92901493  0.07422547    -0.80600
O791        O  0.17515924  0.51962399  0.05005344    -0.80600
O792        O  0.24555331  0.94978325  0.08994677    -0.80700
C793        C  0.22865507  0.91710198  0.07984605     1.09100
C794        C  0.19762853  0.53962472  0.07257040     1.08900
C795        C  0.29879483  0.55777361  0.08245049     1.09100
C796        C  0.14084324  0.92925633  0.07400644     1.09000
O797        O  0.15443179  0.89607966  0.50854187    -0.80600
O798        O  0.27280810  0.53222034  0.48484754    -0.80700
O799        O  0.26843941  0.95095688  0.51716948    -0.80600
O800        O  0.20648790  0.52614202  0.48147805    -0.80600
O801        O  0.24807987  0.57657573  0.50865962    -0.80700
O802        O  0.22408630  0.94463346  0.48550689    -0.80600
O803        O  0.16484250  0.94548671  0.48123877    -0.80600
O804        O  0.30950429  0.52653728  0.51889063    -0.80700
Co805      Co  0.19481713  0.93803090  0.02885946     1.51500
Co806      Co  0.24619518  0.53526064  0.02741580     1.51700
Co807      Co  0.27285914  0.98787602  0.05430714     1.51600
Co808      Co  0.17708122  0.98519817  0.01953257     1.51500
O809        O  0.22568678  0.98689223  0.04329085    -1.42600
C810        C  0.14567787  0.91050673  0.48528830     1.09000
C811        C  0.30431275  0.53864575  0.49118580     1.09100
C812        C  0.24855780  0.93779471  0.49023784     1.09000
C813        C  0.22282665  0.56116222  0.48647039     1.09000
C814        C  0.17762985  0.60722367  0.31793939    -0.06000
C815        C  0.19600895  0.59332324  0.29861819     0.08200
C816        C  0.21598997  0.58146871  0.31611993    -0.03300
C817        C  0.21827168  0.58413142  0.35309072    -0.01600
C818        C  0.19989411  0.59830409  0.37307049    -0.05200
C819        C  0.17900236  0.60925545  0.35492434     0.01800
C820        C  0.19517956  0.59234276  0.25949016     0.08600
C821        C  0.23465990  0.56693402  0.29581643     0.34500
C822        C  0.15797619  0.62194841  0.37379475     0.38000
C823        C  0.22507672  0.61967448  0.24002486    -0.05600
C824        C  0.22372125  0.61992862  0.20317280     0.01600
C825        C  0.19275816  0.59243221  0.18568498    -0.05200
C826        C  0.16307150  0.56477839  0.20504824    -0.01400
C827        C  0.16406695  0.56502171  0.24200505    -0.04000
C828        C  0.25717913  0.64744736  0.25800396     0.35300
C829        C  0.13116486  0.53665966  0.18699317     0.38900
C830        C  0.25445260  0.64788530  0.18298331     0.38000
C831        C  0.13280673  0.53768387  0.26208033     0.35000
C832        C  0.15756622  0.61988159  0.29943124     0.35600
C833        C  0.24046073  0.57295078  0.36984090     0.38900
N834        N  0.27841541  0.66983030  0.16610083    -0.39200
N835        N  0.28283736  0.66932463  0.27249284    -0.40800
N836        N  0.10575374  0.51423387  0.17255477    -0.38500
N837        N  0.09247604  0.00470959  0.27432372    -0.40900
N838        N  0.24960895  0.55548700  0.27958026    -0.40700
N839        N  0.25805158  0.56372531  0.38286670    -0.38300
N840        N  0.14124285  0.63227581  0.38855469    -0.39400
N841        N  0.14170490  0.62990401  0.28439890    -0.41000
C842        C  0.37531376  0.75748037  0.31597354    -0.06000
C843        C  0.36549300  0.78041830  0.30073326     0.08200
C844        C  0.35802110  0.80265627  0.32264075    -0.03300
C845        C  0.35755047  0.79990580  0.35955697    -0.01600
C846        C  0.36626379  0.77612989  0.37483487    -0.05200
C847        C  0.37601498  0.75554180  0.35288524     0.01800
C848        C  0.36196676  0.78018488  0.26160842     0.08600
C849        C  0.35230105  0.82944190  0.30718728     0.34500
C850        C  0.38578069  0.73152830  0.36813857     0.38000
C851        C  0.32719187  0.76298629  0.24675626    -0.05600
C852        C  0.32353598  0.76034282  0.20984393     0.01600
C853        C  0.35480773  0.77390084  0.18726195    -0.05200
C854        C  0.38973238  0.79275861  0.20246534    -0.01400
C855        C  0.39318247  0.79586151  0.23937512    -0.04000
C856        C  0.29498035  0.74684489  0.26962454     0.35300
C857        C  0.42241539  0.81015324  0.18031637     0.38900
C858        C  0.28729928  0.74300822  0.19565593     0.38000
C859        C  0.42896538  0.81481893  0.25469305     0.35000
C860        C  0.38525067  0.73629605  0.29351907     0.35600
C861        C  0.34891854  0.82221535  0.38185391     0.38900
N862        N  0.25824396  0.72944625  0.18474307    -0.39200
N863        N  0.26933818  0.73376539  0.28788960    -0.40800
N864        N  0.44854014  0.82409585  0.16273621    -0.38500
N865        N  0.45737083  0.82960598  0.26716652    -0.40900
N866        N  0.34841320  0.85137490  0.29510058    -0.40700
N867        N  0.34195584  0.83988701  0.39972656    -0.38300
N868        N  0.39372823  0.71247340  0.38021282    -0.39400
N869        N  0.39384804  0.72012822  0.27531899    -0.41000
C870        C  0.39964301  0.62337412  0.32213425    -0.06000
C871        C  0.37226388  0.59397397  0.30295865     0.08200
C872        C  0.34492724  0.56306386  0.32068081    -0.03300
C873        C  0.34374667  0.56196566  0.35782446    -0.01600
C874        C  0.37066249  0.59211830  0.37797256    -0.05200
C875        C  0.39960733  0.62230601  0.35915473     0.01800
C876        C  0.36926885  0.59807015  0.26458826     0.08600
C877        C  0.31683956  0.53300795  0.30037770     0.34500
C878        C  0.42965995  0.65316731  0.37688933     0.38000
C879        C  0.37976731  0.58098965  0.23890369    -0.05600
C880        C  0.37665728  0.58561499  0.20289090     0.01600
C881        C  0.36503042  0.60889004  0.19261339    -0.05200
C882        C  0.35597325  0.62706260  0.21835169    -0.01400
C883        C  0.35625918  0.62011482  0.25418164    -0.04000
C884        C  0.39356436  0.55863690  0.24942447     0.35300
C885        C  0.34702153  0.65338909  0.20818764     0.39200
C886        C  0.38606361  0.56705938  0.17631836     0.38000
C887        C  0.34219967  0.63463522  0.28066468     0.35000
C888        C  0.42707792  0.65578315  0.30356629     0.35600
C889        C  0.31401956  0.52959438  0.37438406     0.38900
N890        N  0.39362278  0.55244378  0.15496353    -0.39200
N891        N  0.40477996  0.54084837  0.25747226    -0.40800
N892        N  0.34085641  0.67525109  0.20057340    -0.38500
N893        N  0.33086389  0.64540097  0.30248547    -0.40900
N894        N  0.29468664  0.50930217  0.28380939    -0.40700
N895        N  0.28990904  0.50368014  0.38705530    -0.38300
N896        N  0.45395570  0.67799399  0.39041653    -0.39400
N897        N  0.44876131  0.68159987  0.28874835    -0.41000
C898        C  0.09680919  0.70250491  0.24713065    -0.06000
C899        C  0.06343423  0.68309114  0.26576081     0.08200
C900        C  0.03084214  0.66456804  0.24704190    -0.03300
C901        C  0.03133271  0.66778453  0.21001694    -0.01600
C902        C  0.06471448  0.69003057  0.19126277    -0.05200
C903        C  0.09760666  0.70726686  0.21045730     0.01800
C904        C  0.06291246  0.68460439  0.30528539     0.08600
C905        C  0.99706414  0.64082360  0.26600268     0.34500
C906        C  0.13254967  0.73158009  0.19335430     0.38000
C907        C  0.06524687  0.71493486  0.32273987    -0.05600
C908        C  0.06849345  0.71867538  0.35965200     0.01600
C909        C  0.06873568  0.69168984  0.37961188    -0.05200
C910        C  0.06440881  0.66038259  0.36226443    -0.01400
C911        C  0.06188758  0.65704647  0.32519984    -0.04000
C912        C  0.06444982  0.74243811  0.30252495     0.35300
C913        C  0.06106275  0.63092642  0.38267125     0.38900
C914        C  0.07291391  0.75102353  0.37687024     0.38000
C915        C  0.05823259  0.62529875  0.30743514     0.35000
C916        C  0.13048016  0.71652680  0.26579557     0.35600
C917        C  0.99740955  0.64744128  0.19146887     0.38900
N918        N  0.07663352  0.77685523  0.39071780    -0.39200
N919        N  0.06365716  0.76422805  0.28630700    -0.40800
N920        N  0.05792760  0.60722603  0.39900218    -0.38500
N921        N  0.05513411  0.59991967  0.29314652    -0.40900
N922        N  0.47057631  0.62125515  0.28152332    -0.40700
N923        N  0.47031117  0.63114406  0.17668707    -0.38300
N924        N  0.16054575  0.75112745  0.18003580    -0.39400
N925        N  0.15721402  0.72694469  0.28064567    -0.41000
C926        C  0.05778996  0.89193035  0.24163594    -0.06000
C927        C  0.07705021  0.88053177  0.26122784     0.08200
C928        C  0.09798475  0.86830507  0.24376985    -0.03300
C929        C  0.09923426  0.86681739  0.20680653    -0.01600
C930        C  0.07982484  0.87802123  0.18718581    -0.05200
C931        C  0.05902534  0.89049001  0.20455827     0.01800
C932        C  0.07422085  0.87950247  0.30042023     0.08600
C933        C  0.11805988  0.85716095  0.26418560     0.34500
C934        C  0.03847024  0.90121376  0.18425379     0.38000
C935        C  0.04974300  0.84654603  0.31717524    -0.05600
C936        C  0.05047883  0.84360678  0.35389364     0.01600
C937        C  0.07550504  0.87426650  0.37456209    -0.05200
C938        C  0.09836528  0.90805512  0.35745654    -0.01400
C939        C  0.09817748  0.91028570  0.32050798    -0.04000
C940        C  0.02439495  0.81517556  0.29623139     0.35300
C941        C  0.12151516  0.94101326  0.37749197     0.38900
C942        C  0.02584058  0.80834058  0.36948793     0.38000
C943        C  0.12336358  0.94403769  0.30278130     0.35000
C944        C  0.03664807  0.90489858  0.25967469     0.35600
C945        C  0.11981863  0.85302336  0.18898050     0.38900
N946        N  0.50588331  0.78009466  0.38151840    -0.39200
N947        N  0.50423226  0.79014194  0.27958841    -0.40800
N948        N  0.13995333  0.96750382  0.39320592    -0.38500
N949        N  0.14343665  0.97071915  0.28827742    -0.40900
N950        N  0.13384813  0.84852650  0.28117938    -0.40700
N951        N  0.13607440  0.84182921  0.17480410    -0.38300
N952        N  0.02196778  0.90961953  0.16800477    -0.39400
N953        N  0.01980671  0.91529537  0.27408601    -0.41000
C954        C  0.25359408  0.85000935  0.24671968    -0.06000
C955        C  0.24399210  0.87173343  0.26640467     0.08200
C956        C  0.23285457  0.89250694  0.24934565    -0.03300
C957        C  0.23069487  0.89124359  0.21240115    -0.01600
C958        C  0.24091283  0.86976043  0.19188001    -0.05200
C959        C  0.25338518  0.84989907  0.20969420     0.01800
C960        C  0.24484894  0.87222099  0.30548502     0.08600
C961        C  0.22283028  0.91469560  0.27015077     0.34500
C962        C  0.26728416  0.83006351  0.19058202     0.38000
C963        C  0.27635922  0.89859866  0.32306419    -0.05600
C964        C  0.27665699  0.89958444  0.36011163     0.01600
C965        C  0.24518827  0.87461721  0.37952103    -0.05200
C966        C  0.21401938  0.84757452  0.36177345    -0.01400
C967        C  0.21394051  0.84637159  0.32482836    -0.04000
C968        C  0.30848069  0.92440603  0.30292299     0.35300
C969        C  0.18192961  0.82101894  0.38152355     0.38900
C970        C  0.30988091  0.92478570  0.37819690     0.38000
C971        C  0.18207649  0.81853198  0.30661846     0.35000
C972        C  0.26263108  0.82681282  0.26483277     0.35600
C973        C  0.21721641  0.91185569  0.19639233     0.38900
N974        N  0.33652580  0.94452456  0.39263725    -0.39200
N975        N  0.33407786  0.94491603  0.28675838    -0.40800
N976        N  0.15676055  0.79975419  0.39766378    -0.38500
N977        N  0.15664576  0.79634622  0.29207448    -0.40900
N978        N  0.21479675  0.93229488  0.28676715    -0.40700
N979        N  0.20651054  0.92851266  0.18403517    -0.38300
N980        N  0.27855345  0.81430065  0.17558471    -0.39400
N981        N  0.26907259  0.80780020  0.27936744    -0.41000
C982        C  0.23781587  0.86741421  0.65248715     0.79700
N983        N  0.23610814  0.89324166  0.63452969    -0.78600
C984        C  0.23133936  0.89017387  0.59929155     0.82200
N985        N  0.23030847  0.86235637  0.58146416    -0.78500
C986        C  0.23328845  0.83721978  0.59862924     0.82300
N987        N  0.23587092  0.83899840  0.63411728    -0.80200
C988        C  0.24458014  0.87614620  0.91831872     0.79700
N989        N  0.23495376  0.84572972  0.93658774    -0.78600
C990        C  0.22987808  0.84499733  0.97187697     0.82200
N991        N  0.23568279  0.87550467  0.98917393    -0.78500
C992        C  0.24649058  0.90661577  0.97118906     0.82300
N993        N  0.24990103  0.90648888  0.93556585    -0.80200
C994        C  0.07808214  0.87065805  0.91339468     0.79700
N995        N  0.11004437  0.89225346  0.93050846    -0.78600
C996        C  0.11240769  0.88723292  0.96526937     0.82200
N997        N  0.08277315  0.86081022  0.98283414    -0.78500
C998        C  0.05087486  0.83963477  0.96631826     0.82300
N999        N  0.04865381  0.84450975  0.93176753    -0.80200
C1000       C  0.08107288  0.87623316  0.64850667     0.79700
N1001       N  0.05668662  0.84513055  0.63147272    -0.78600
C1002       C  0.05968540  0.84245116  0.59605029     0.82200
N1003       N  0.08610451  0.87103791  0.57781408    -0.78500
C1004       C  0.10986165  0.90229169  0.59449471     0.82300
N1005       N  0.10820430  0.90465180  0.63008602    -0.80200
C1006       C  0.06568412  0.69488575  0.65199288     0.79700
N1007       N  0.03834467  0.69551514  0.63549865    -0.78600
C1008       C  0.04124610  0.70205725  0.60027103     0.82200
N1009       N  0.07147770  0.70904451  0.58195632    -0.78500
C1010       C  0.09828912  0.70798206  0.59772001     0.82300
N1011       N  0.09507284  0.70019767  0.63245298    -0.80200
C1012       C  0.07412510  0.69663750  0.91836516     0.79700
N1013       N  0.10250040  0.69639240  0.93287506    -0.78600
C1014       C  0.10860754  0.70298073  0.96791109     0.82200
N1015       N  0.08675620  0.71055715  0.98805773    -0.78500
C1016       C  0.05844542  0.71084387  0.97401892     0.82300
N1017       N  0.05226411  0.70396485  0.93905843    -0.80200
C1018       C  0.36822341  0.59257449  0.91788847     0.79700
N1019       N  0.33852191  0.56605393  0.93579338    -0.78600
C1020       C  0.33677532  0.56632090  0.97149638     0.82200
N1021       N  0.36472113  0.59393921  0.98972919    -0.78500
C1022       C  0.39395755  0.62135531  0.97241073     0.82300
N1023       N  0.39516006  0.62046411  0.93674023    -0.80200
C1024       C  0.35980015  0.61228518  0.65511453     0.79700
N1025       N  0.38354455  0.64331430  0.63734854    -0.78600
C1026       C  0.37714776  0.64620697  0.60321690     0.82200
N1027       N  0.34807259  0.61857197  0.58746930    -0.78500
C1028       C  0.32560769  0.58738347  0.60407784     0.82300
N1029       N  0.33137874  0.58376385  0.63816078    -0.80200
C1030       C  0.35122555  0.76760999  0.64821284     0.79700
N1031       N  0.37404356  0.75992423  0.62967174    -0.78600
C1032       C  0.37024526  0.75310948  0.59441961     0.82200
N1033       N  0.34404603  0.75460683  0.57772561    -0.78500
C1034       C  0.32168426  0.76281231  0.59558009     0.82300
N1035       N  0.32479012  0.76876316  0.63085720    -0.80200
C1036       C  0.36509219  0.77278274  0.91365739     0.79700
N1037       N  0.33373794  0.76285298  0.93220781    -0.78600
C1038       C  0.33195127  0.75773569  0.96746340     0.82200
N1039       N  0.36186683  0.76356173  0.98414819    -0.78500
C1040       C  0.39351797  0.77439816  0.96605628     0.82300
N1041       N  0.39470351  0.77785857  0.93059806    -0.80200
C1042       C  0.20276945  0.60201966  0.91238963     0.79700
N1043       N  0.19969599  0.62832312  0.92972430    -0.78600
C1044       C  0.20173049  0.63151561  0.96525265     0.82200
N1045       N  0.20919206  0.60955941  0.98345999    -0.78500
C1046       C  0.21318516  0.58369265  0.96648550     0.82300
N1047       N  0.20899980  0.57952509  0.93118400    -0.80200
C1048       C  0.19213509  0.59218342  0.64704304     0.79700
N1049       N  0.19092280  0.56433165  0.62855441    -0.78600
C1050       C  0.19290061  0.56536553  0.59296968     0.82200
N1051       N  0.19838188  0.59492645  0.57607831    -0.78500
C1052       C  0.20025246  0.62292566  0.59435699     0.82300
N1053       N  0.19661491  0.62146959  0.62990581    -0.80200
O1054       O  0.19032074  0.79847526  0.01209295    -0.80600
O1055       O  0.22128723  0.69228485  0.98202082    -0.80600
O1056       O  0.27764777  0.75805128  0.98343983    -0.80700
O1057       O  0.13153416  0.68134109  0.00965957    -0.80600
O1058       O  0.28815656  0.71960850  0.01035135    -0.80700
O1059       O  0.17086319  0.73172972  0.98269008    -0.80600
O1060       O  0.17335010  0.64873467  0.00934660    -0.80600
O1061       O  0.23395110  0.79335379  0.98548779    -0.80700
C1062       C  0.21773750  0.81119760  0.99103041     1.09100
C1063       C  0.19706409  0.65904371  0.98451663     1.08900
C1064       C  0.29784371  0.74455620  0.98787234     1.09100
C1065       C  0.13920134  0.70378854  0.98510510     1.09000
O1066       O  0.13984278  0.73401116  0.54973001    -0.80600
O1067       O  0.26309301  0.72930362  0.57515067    -0.80700
O1068       O  0.25658941  0.81417548  0.55621967    -0.80600
O1069       O  0.18547047  0.66637035  0.58350219    -0.80600
O1070       O  0.22624794  0.66555839  0.54852284    -0.80700
O1071       O  0.20212024  0.77858640  0.57571948    -0.80600
O1072       O  0.14504142  0.69701929  0.58377291    -0.80600
O1073       O  0.29642919  0.78258619  0.55438784    -0.80700
Co1074     Co  0.19009228  0.75697395  0.52853450     1.51500
Co1075     Co  0.24377836  0.71433888  0.52786239     1.51700
Co1076     Co  0.25940440  0.78000224  0.52186371     1.51600
Co1077     Co  0.16216106  0.67692801  0.54590039     1.51500
O1078       O  0.20919294  0.72754825  0.54032258    -1.42600
C1079       C  0.12957085  0.71377440  0.57649425     1.09000
C1080       C  0.29154715  0.75941021  0.57651255     1.09100
C1081       C  0.23152475  0.80785384  0.57790950     1.09000
C1082       C  0.20501366  0.65368106  0.57522117     1.09000
O1083       O  0.04368027  0.80139292  0.54823377    -0.80600
O1084       O  0.39176619  0.67462072  0.54926783    -0.80600
O1085       O  0.42835216  0.76246243  0.58368879    -0.80700
O1086       O  0.48652584  0.67389374  0.56851099    -0.80600
O1087       O  0.38784812  0.73308454  0.54280742    -0.80700
O1088       O  0.01955184  0.73411806  0.57103741    -0.80600
O1089       O  0.43672382  0.69294817  0.58652953    -0.80600
O1090       O  0.50090687  0.79306645  0.58541399    -0.80700
C1091       C  0.03395672  0.80990217  0.57668495     1.09100
C1092       C  0.40321333  0.67445213  0.57973703     1.08900
C1093       C  0.39628432  0.74791449  0.57330511     1.09100
C1094       C  0.01342373  0.70292670  0.58053112     1.09000
O1095       O  0.05574726  0.75545172  0.00866533    -0.80600
O1096       O  0.42803619  0.74864614  0.97523710    -0.80700
O1097       O  0.50792994  0.81893195  0.01305744    -0.80600
O1098       O  0.43105317  0.65461972  0.02183918    -0.80600
O1099       O  0.42720252  0.68520728  0.97986915    -0.80700
O1100       O  0.01284142  0.77810902  0.98096179    -0.80600
O1101       O  0.50352998  0.70311136  0.00258510    -0.80600
O1102       O  0.43376612  0.78991632  0.01347107    -0.80700
Co1103     Co  0.01260393  0.75349827  0.52386271     1.51500
Co1104     Co  0.41170953  0.71182843  0.51169308     1.51700
Co1105     Co  0.46768272  0.78845580  0.54855434     1.51600
Co1106     Co  0.46984451  0.70092958  0.54605348     1.51500
O1107       O  0.46149139  0.74051615  0.53221730    -1.42600
C1108       C  0.03834973  0.72357862  0.99599322     1.09000
C1109       C  0.42249030  0.77350457  0.98400684     1.09100
C1110       C  0.02033822  0.81039328  0.98601824     1.09000
C1111       C  0.42002616  0.65509369  0.99147778     1.09000
O1112       O  0.21150863  0.90816646  0.55133241    -0.80600
O1113       O  0.22770418  0.54278429  0.57221341    -0.80600
O1114       O  0.28524493  0.52509568  0.59075416    -0.80700
O1115       O  0.13747557  0.94713864  0.55066407    -0.80600
O1116       O  0.29192975  0.56582337  0.55305325    -0.80700
O1117       O  0.16927033  0.92901956  0.57423069    -0.80600
O1118       O  0.17514186  0.51963931  0.55005718    -0.80600
O1119       O  0.24554873  0.94980173  0.58994994    -0.80700
C1120       C  0.22865515  0.91712109  0.57984644     1.09100
C1121       C  0.19761431  0.53964692  0.57256860     1.08900
C1122       C  0.29877877  0.55781739  0.58244735     1.09100
C1123       C  0.14083682  0.92925999  0.57401811     1.09000
O1124       O  0.15443228  0.89606761  0.00854200    -0.80600
O1125       O  0.27280982  0.53218948  0.98485503    -0.80700
O1126       O  0.26843752  0.95092662  0.01716503    -0.80600
O1127       O  0.20650405  0.52611948  0.98147994    -0.80600
O1128       O  0.24808792  0.57654769  0.00867452    -0.80700
O1129       O  0.22408797  0.94461327  0.98550343    -0.80600
O1130       O  0.16484849  0.94547293  0.98123161    -0.80600
O1131       O  0.30950754  0.52649522  0.01888504    -0.80700
Co1132     Co  0.19481201  0.93804433  0.52886277     1.51500
Co1133     Co  0.24618846  0.53529275  0.52740485     1.51700
Co1134     Co  0.27284920  0.98790041  0.55431398     1.51600
Co1135     Co  0.17706202  0.98520593  0.51954180     1.51500
O1136       O  0.22567221  0.98690735  0.54329721    -1.42600
C1137       C  0.14567924  0.91049340  0.98528646     1.09000
C1138       C  0.30431465  0.53861311  0.99118767     1.09100
C1139       C  0.24855576  0.93776938  0.99023317     1.09000
C1140       C  0.22284187  0.56113926  0.98647700     1.09000
C1141       C  0.17751197  0.60711652  0.81797094    -0.06000
C1142       C  0.19589335  0.59322892  0.79863260     0.08200
C1143       C  0.21588646  0.58137790  0.81611784    -0.03300
C1144       C  0.21819617  0.58405158  0.85308664    -0.01600
C1145       C  0.19983374  0.59823040  0.87308143    -0.05200
C1146       C  0.17891596  0.60916302  0.85495436     0.01800
C1147       C  0.19507023  0.59227536  0.75950372     0.08600
C1148       C  0.23453622  0.56683166  0.79579869     0.34500
C1149       C  0.15789808  0.62185485  0.87384413     0.38000
C1150       C  0.22496403  0.61963133  0.74005451    -0.05600
C1151       C  0.22362259  0.61990410  0.70320210     0.01600
C1152       C  0.19267601  0.59240438  0.68569628    -0.05200
C1153       C  0.16299061  0.56472991  0.70504414    -0.01400
C1154       C  0.16397296  0.56495220  0.74200172    -0.04000
C1155       C  0.25705002  0.64740905  0.75805073     0.35300
C1156       C  0.13109857  0.53660976  0.68697271     0.38900
C1157       C  0.25435400  0.64788129  0.68302953     0.38000
C1158       C  0.13271634  0.53758741  0.76206023     0.35000
C1159       C  0.15741007  0.61974268  0.79948278     0.35600
C1160       C  0.24040026  0.57287929  0.86981914     0.38900
N1161       N  0.27831537  0.66984023  0.66615651    -0.39200
N1162       N  0.28269433  0.66929099  0.77255383    -0.40800
N1163       N  0.10569849  0.51418287  0.67252166    -0.38500
N1164       N  0.09248985  0.00464321  0.77431188    -0.40900
N1165       N  0.24946508  0.55537142  0.77954893    -0.40700
N1166       N  0.25800285  0.56366112  0.88283255    -0.38300
N1167       N  0.14117223  0.63218146  0.88862102    -0.39400
N1168       N  0.14151451  0.62973691  0.78446770    -0.41000
C1169       C  0.37534124  0.75749886  0.81597310    -0.06000
C1170       C  0.36552678  0.78044282  0.80073478     0.08200
C1171       C  0.35808078  0.80269825  0.82264497    -0.03300
C1172       C  0.35761837  0.79995145  0.85956162    -0.01600
C1173       C  0.36630811  0.77615700  0.87483677    -0.05200
C1174       C  0.37604841  0.75556208  0.85288466     0.01800
C1175       C  0.36199518  0.78020819  0.76160928     0.08600
C1176       C  0.35238961  0.82950430  0.80719477     0.34500
C1177       C  0.38581990  0.73155224  0.86813572     0.38000
C1178       C  0.32721932  0.76302079  0.74676041    -0.05600
C1179       C  0.32355895  0.76037729  0.70984791     0.01600
C1180       C  0.35482609  0.77391546  0.68726135    -0.05200
C1181       C  0.38975260  0.79276037  0.70246170    -0.01400
C1182       C  0.39320738  0.79586923  0.73937138    -0.04000
C1183       C  0.29501040  0.74688942  0.76963164     0.35300
C1184       C  0.42243414  0.81013744  0.68031015     0.38900
C1185       C  0.28732200  0.74306707  0.69566481     0.38000
C1186       C  0.42899187  0.81481396  0.75468535     0.35000
C1187       C  0.38527462  0.73631351  0.79351625     0.35600
C1188       C  0.34903178  0.82229180  0.88186345     0.38900
N1189       N  0.25826731  0.72952642  0.68475501    -0.39200
N1190       N  0.26936859  0.73381722  0.78789720    -0.40800
N1191       N  0.44855849  0.82406653  0.66272881    -0.38500
N1192       N  0.45739757  0.82958917  0.76715761    -0.40900
N1193       N  0.34852804  0.85145646  0.79511312    -0.40700
N1194       N  0.34211049  0.83999049  0.89974253    -0.38300
N1195       N  0.39377544  0.71250321  0.88020902    -0.39400
N1196       N  0.39387246  0.72014829  0.77531285    -0.41000
C1197       C  0.39958348  0.62342463  0.82214031    -0.06000
C1198       C  0.37219693  0.59403293  0.80296291     0.08200
C1199       C  0.34485797  0.56312147  0.82068114    -0.03300
C1200       C  0.34368841  0.56200954  0.85782368    -0.01600
C1201       C  0.37061464  0.59215161  0.87797496    -0.05200
C1202       C  0.39955547  0.62234511  0.85915976     0.01800
C1203       C  0.36920864  0.59813246  0.76459230     0.08600
C1204       C  0.31676230  0.53307436  0.80037582     0.34500
C1205       C  0.42961554  0.65319720  0.87689626     0.38000
C1206       C  0.37971572  0.58105601  0.73891179    -0.05600
C1207       C  0.37662285  0.58569051  0.70289799     0.01600
C1208       C  0.36498899  0.60895798  0.69261607    -0.05200
C1209       C  0.35591778  0.62712299  0.71834992    -0.01400
C1210       C  0.35620028  0.62017680  0.75418122    -0.04000
C1211       C  0.39349920  0.55869332  0.74943799     0.35300
C1212       C  0.34695811  0.65344177  0.70817961     0.39200
C1213       C  0.38605653  0.56715441  0.67632806     0.38000
C1214       C  0.34213934  0.63469818  0.78066130     0.35000
C1215       C  0.42702435  0.65583262  0.80357516     0.35600
C1216       C  0.31396597  0.52963156  0.87437873     0.38900
N1217       N  0.39364006  0.55255783  0.65497397    -0.39200
N1218       N  0.40470112  0.54089424  0.75749023    -0.40800
N1219       N  0.34078669  0.67529790  0.70056015    -0.38500
N1220       N  0.33080510  0.64546648  0.80248104    -0.40900
N1221       N  0.29460285  0.50937483  0.78380690    -0.40700
N1222       N  0.28985998  0.50371134  0.88704632    -0.38300
N1223       N  0.45391731  0.67801635  0.89042521    -0.39400
N1224       N  0.44871354  0.68164782  0.78875909    -0.41000
C1225       C  0.09678252  0.70245932  0.74712323    -0.06000
C1226       C  0.06340650  0.68306239  0.76575435     0.08200
C1227       C  0.03081248  0.66456756  0.74703653    -0.03300
C1228       C  0.03130546  0.66778907  0.71001175    -0.01600
C1229       C  0.06469120  0.69001909  0.69125711    -0.05200
C1230       C  0.09758326  0.70723276  0.71045167     0.01800
C1231       C  0.06288771  0.68458053  0.80527955     0.08600
C1232       C  0.99702644  0.64085570  0.76600013     0.34500
C1233       C  0.13253062  0.73153928  0.69335252     0.38000
C1234       C  0.06526630  0.71493344  0.82272844    -0.05600
C1235       C  0.06851326  0.71867579  0.85964078     0.01600
C1236       C  0.06871997  0.69167419  0.87960651    -0.05200
C1237       C  0.06435204  0.66034775  0.86226428    -0.01400
C1238       C  0.06182357  0.65700586  0.82519977    -0.04000
C1239       C  0.06451691  0.74245846  0.80250514     0.35300
C1240       C  0.06097424  0.63088046  0.88267641     0.38900
C1241       C  0.07297109  0.75104134  0.87685298     0.38000
C1242       C  0.05812284  0.62523610  0.80744100     0.35000
C1243       C  0.13045081  0.71645963  0.76578696     0.35600
C1244       C  0.99737941  0.64747134  0.69146504     0.38900
N1245       N  0.07672216  0.77688850  0.89069388    -0.39200
N1246       N  0.06376287  0.76426296  0.78627488    -0.40800
N1247       N  0.05781468  0.60717143  0.89901080    -0.38500
N1248       N  0.05498783  0.59983960  0.79315699    -0.40900
N1249       N  0.47053398  0.62131183  0.78150231    -0.40700
N1250       N  0.47027992  0.63128449  0.67668496    -0.38300
N1251       N  0.16052976  0.75108203  0.68003697    -0.39400
N1252       N  0.15718204  0.72686125  0.78063631    -0.41000
C1253       C  0.05776127  0.89191384  0.74164834    -0.06000
C1254       C  0.07700945  0.88049775  0.76123642     0.08200
C1255       C  0.09793463  0.86826259  0.74377361    -0.03300
C1256       C  0.09918318  0.86678008  0.70680991    -0.01600
C1257       C  0.07978863  0.87800391  0.68719206    -0.05200
C1258       C  0.05899538  0.89047785  0.70456966     0.01800
C1259       C  0.07418401  0.87946598  0.80042955     0.08600
C1260       C  0.11800869  0.85711237  0.76418440     0.34500
C1261       C  0.03844011  0.90120530  0.68427041     0.38000
C1262       C  0.04973256  0.84650090  0.81718561    -0.05600
C1263       C  0.05048130  0.84356398  0.85390291     0.01600
C1264       C  0.07549048  0.87423399  0.87456937    -0.05200
C1265       C  0.09832483  0.90802724  0.85746436    -0.01400
C1266       C  0.09812690  0.91025665  0.82051664    -0.04000
C1267       C  0.02440106  0.81511948  0.79624409     0.35300
C1268       C  0.12145904  0.94098989  0.87750023     0.38900
C1269       C  0.02587695  0.80829040  0.86949900     0.38000
C1270       C  0.12329434  0.94401414  0.80278975     0.35000
C1271       C  0.03663847  0.90490185  0.75969185     0.35600
C1272       C  0.11974971  0.85296811  0.68898031     0.38900
N1273       N  0.50591456  0.78004852  0.88153072    -0.39200
N1274       N  0.50421666  0.79009280  0.77960607    -0.40800
N1275       N  0.13988468  0.96748376  0.89321469    -0.38500
N1276       N  0.14335483  0.97069970  0.78828583    -0.40900
N1277       N  0.13379792  0.84847414  0.78117255    -0.40700
N1278       N  0.13599022  0.84175820  0.67480157    -0.38300
N1279       N  0.02193412  0.90961139  0.66802743    -0.39400
N1280       N  0.01981470  0.91531682  0.77410721    -0.41000
C1281       C  0.25365697  0.85006397  0.74670274    -0.06000
C1282       C  0.24403353  0.87176763  0.76639460     0.08200
C1283       C  0.23285720  0.89251365  0.74934469    -0.03300
C1284       C  0.23067817  0.89124088  0.71240230    -0.01600
C1285       C  0.24091625  0.86977820  0.69187554    -0.05200
C1286       C  0.25342433  0.84994263  0.70967882     0.01800
C1287       C  0.24488116  0.87223974  0.80547391     0.08600
C1288       C  0.22281001  0.91468012  0.77015707     0.34500
C1289       C  0.26732823  0.83011679  0.69055572     0.38000
C1290       C  0.27637821  0.89862182  0.82306620    -0.05600
C1291       C  0.27666125  0.89959329  0.86011380     0.01600
C1292       C  0.24519255  0.87460338  0.87950993    -0.05200
C1293       C  0.21404059  0.84755098  0.86174794    -0.01400
C1294       C  0.21397421  0.84636729  0.82480252    -0.04000
C1295       C  0.30850216  0.92444648  0.80293879     0.35300
C1296       C  0.18195703  0.82096373  0.88148259     0.38900
C1297       C  0.30987270  0.92480197  0.87821297     0.38000
C1298       C  0.18212520  0.81852526  0.80657474     0.35000
C1299       C  0.26273750  0.82689648  0.76480705     0.35600
C1300       C  0.21715303  0.91181508  0.69640044     0.38900
N1301       N  0.33650733  0.94454626  0.89266560    -0.39200
N1302       N  0.33410284  0.94496938  0.78678619    -0.40800
N1303       N  0.15679444  0.79967189  0.89761101    -0.38500
N1304       N  0.15671039  0.79634059  0.79201018    -0.40900
N1305       N  0.21475876  0.93226229  0.78677910    -0.40700
N1306       N  0.20641070  0.92844181  0.68404724    -0.38300
N1307       N  0.27859834  0.81435989  0.67554809    -0.39400
N1308       N  0.26921493  0.80790621  0.77933323    -0.41000
C1309       C  0.74916102  0.37497418  0.15281477     0.79700
N1310       N  0.74452037  0.39879555  0.13452819    -0.78600
C1311       C  0.73621724  0.39297042  0.09996034     0.82200
N1312       N  0.73438745  0.36438308  0.08304335    -0.78500
C1313       C  0.74015088  0.34116497  0.10035458     0.82300
N1314       N  0.74660286  0.34574644  0.13538410    -0.80200
C1315       C  0.75256679  0.37843792  0.41808816     0.79700
N1316       N  0.74271942  0.34795006  0.43658142    -0.78600
C1317       C  0.73529605  0.34663378  0.47162739     0.82200
N1318       N  0.73920359  0.37652221  0.48843909    -0.78500
C1319       C  0.75016957  0.40753308  0.47047352     0.82300
N1320       N  0.75580071  0.40806990  0.43513500    -0.80200
C1321       C  0.58031453  0.36837756  0.41381288     0.79700
N1322       N  0.61213006  0.39006762  0.43094407    -0.78600
C1323       C  0.61422100  0.38586962  0.46585553     0.82200
N1324       N  0.58431800  0.36017448  0.48372189    -0.78500
C1325       C  0.55241050  0.33879500  0.46717308     0.82300
N1326       N  0.55053606  0.34265867  0.43221801    -0.80200
C1327       C  0.58421439  0.37748856  0.14883833     0.79700
N1328       N  0.55942921  0.34624188  0.13226597    -0.78600
C1329       C  0.56212576  0.34293563  0.09689714     0.82200
N1330       N  0.58867224  0.37103956  0.07824548    -0.78500
C1331       C  0.61281531  0.40245037  0.09444053     0.82300
N1332       N  0.61150927  0.40538367  0.12999979    -0.80200
C1333       C  0.56977270  0.19888054  0.15351115     0.79700
N1334       N  0.54155737  0.19632608  0.13575536    -0.78600
C1335       C  0.54484030  0.20289442  0.10065552     0.82200
N1336       N  0.57608008  0.21217064  0.08309275    -0.78500
C1337       C  0.60385882  0.21402447  0.09993007     0.82300
N1338       N  0.60070801  0.20739597  0.13491838    -0.80200
C1339       C  0.58179768  0.20404059  0.41994637     0.79700
N1340       N  0.60966176  0.20318266  0.43476281    -0.78600
C1341       C  0.61376867  0.20713472  0.47018105     0.82200
N1342       N  0.59047466  0.21266558  0.49030475    -0.78500
C1343       C  0.56272751  0.21354179  0.47573162     0.82300
N1344       N  0.55860865  0.20948238  0.44041959    -0.80200
C1345       C  0.86492112  0.09684656  0.42090412     0.79700
N1346       N  0.83513419  0.07049982  0.43877675    -0.78600
C1347       C  0.83536639  0.06858970  0.47433340     0.82200
N1348       N  0.86522625  0.09429842  0.49226231    -0.78500
C1349       C  0.89469563  0.12143925  0.47463042     0.82300
N1350       N  0.89416233  0.12225626  0.43912678    -0.80200
C1351       C  0.86058897  0.11006710  0.15682778     0.79700
N1352       N  0.88566284  0.14021866  0.13859156    -0.78600
C1353       C  0.87994321  0.14301420  0.10423910     0.82200
N1354       N  0.85015849  0.11604142  0.08862032    -0.78500
C1355       C  0.82607385  0.08576321  0.10587823     0.82300
N1356       N  0.83104997  0.08244510  0.14024022    -0.80200
C1357       C  0.85508978  0.26762352  0.15042346     0.79700
N1358       N  0.87713052  0.25896907  0.13179740    -0.78600
C1359       C  0.87257430  0.25122148  0.09674457     0.82200
N1360       N  0.84622025  0.25249977  0.08022064    -0.78500
C1361       C  0.82447482  0.26146864  0.09804023     0.82300
N1362       N  0.82851244  0.26865062  0.13312787    -0.80200
C1363       C  0.86598799  0.27042898  0.41547996     0.79700
N1364       N  0.83468846  0.26039625  0.43407715    -0.78600
C1365       C  0.83312102  0.25538141  0.46934121     0.82200
N1366       N  0.86315490  0.26143951  0.48593414    -0.78500
C1367       C  0.89474222  0.27229895  0.46773483     0.82300
N1368       N  0.89576221  0.27565007  0.43222466    -0.80200
C1369       C  0.69504178  0.09839745  0.41572304     0.79700
N1370       N  0.69385127  0.12607053  0.43254551    -0.78600
C1371       C  0.70002124  0.13208036  0.46757561     0.82200
N1372       N  0.70924439  0.11141864  0.48554072    -0.78500
C1373       C  0.71127646  0.08423159  0.46913299     0.82300
N1374       N  0.70319974  0.07729211  0.43454198    -0.80200
C1375       C  0.68666627  0.09060936  0.15046398     0.79700
N1376       N  0.68583236  0.06274727  0.13209343    -0.78600
C1377       C  0.69029421  0.06468588  0.09653819     0.82200
N1378       N  0.69766411  0.09497250  0.07973572    -0.78500
C1379       C  0.69925488  0.12294867  0.09775903     0.82300
N1380       N  0.69311657  0.12061884  0.13311134    -0.80200
O1381       O  0.69615420  0.30149116  0.51293652    -0.80600
O1382       O  0.72196170  0.19322038  0.48448194    -0.80600
O1383       O  0.78030752  0.25770696  0.48614739    -0.80700
O1384       O  0.63506977  0.18563229  0.51336717    -0.80600
O1385       O  0.78872914  0.21726099  0.51187364    -0.80700
O1386       O  0.67585692  0.23421884  0.48497869    -0.80600
O1387       O  0.67400276  0.15075861  0.51261824    -0.80600
O1388       O  0.73979686  0.29567419  0.48732760    -0.80700
C1389       C  0.72329583  0.31335796  0.49164941     1.09100
C1390       C  0.69682015  0.16035144  0.48702863     1.08900
C1391       C  0.79933111  0.24286649  0.48996472     1.09100
C1392       C  0.64364660  0.20729284  0.48794501     1.09000
O1393       O  0.64547584  0.23893460  0.05193405    -0.80600
O1394       O  0.76611741  0.22846080  0.07701798    -0.80700
O1395       O  0.76269151  0.31644896  0.05877466    -0.80600
O1396       O  0.68758932  0.16867767  0.08689831    -0.80600
O1397       O  0.72612066  0.16494717  0.05108164    -0.80700
O1398       O  0.70760463  0.28271014  0.07732359    -0.80600
O1399       O  0.65011658  0.20240060  0.08712019    -0.80600
O1400       O  0.79987252  0.28232822  0.05735616    -0.80700
Co1401     Co  0.69541534  0.26020378  0.03045936     1.51500
Co1402     Co  0.74564729  0.21422258  0.03013020     1.51700
Co1403     Co  0.76389128  0.28121661  0.02449763     1.51600
Co1404     Co  0.66502374  0.18026815  0.04942633     1.51500
O1405       O  0.71305755  0.22986766  0.04341509    -1.42600
C1406       C  0.63522831  0.21955828  0.07930279     1.09000
C1407       C  0.79459306  0.25854248  0.07893093     1.09100
C1408       C  0.73765575  0.31115221  0.08007169     1.09000
C1409       C  0.70548421  0.15426489  0.07832367     1.09000
O1410       O  0.54566545  0.30142430  0.04954866    -0.80600
O1411       O  0.89440746  0.17294377  0.05104029    -0.80600
O1412       O  0.93073089  0.26135417  0.08550832    -0.80700
O1413       O  0.99049682  0.17363001  0.06861401    -0.80600
O1414       O  0.88991369  0.23126293  0.04499017    -0.80700
O1415       O  0.52187105  0.23396220  0.07236783    -0.80600
O1416       O  0.93952996  0.19064557  0.08797008    -0.80600
O1417       O  0.00324062  0.29320651  0.08703010    -0.80700
C1418       C  0.53620069  0.31011492  0.07799948     1.09100
C1419       C  0.90600987  0.17187449  0.08112359     1.08900
C1420       C  0.89851796  0.24620217  0.07543722     1.09100
C1421       C  0.51681053  0.20294210  0.08091982     1.09000
O1422       O  0.55846247  0.25670182  0.51057321    -0.80600
O1423       O  0.92999732  0.24737073  0.47718405    -0.80700
O1424       O  0.00955034  0.31841321  0.51429314    -0.80600
O1425       O  0.93421449  0.15362849  0.52310764    -0.80600
O1426       O  0.93058514  0.18495718  0.48199713    -0.80700
O1427       O  0.51439472  0.27748170  0.48242748    -0.80600
O1428       O  0.00690814  0.20389969  0.50356813    -0.80600
O1429       O  0.93505565  0.28838266  0.51527625    -0.80700
Co1430     Co  0.51479829  0.25337535  0.02549761     1.51500
Co1431     Co  0.91408823  0.21055523  0.01368542     1.51700
Co1432     Co  0.96959490  0.28765854  0.05016716     1.51600
Co1433     Co  0.97280448  0.20015156  0.04718578     1.51500
O1434       O  0.96365475  0.23963398  0.03427623    -1.42600
C1435       C  0.54174896  0.22502339  0.49756906     1.09000
C1436       C  0.92396702  0.27190797  0.48581754     1.09100
C1437       C  0.52185396  0.30975668  0.48719363     1.09000
C1438       C  0.92255797  0.15448373  0.49326987     1.09000
O1439       O  0.71495668  0.40874894  0.05123028    -0.80600
O1440       O  0.72443204  0.04087901  0.07650510    -0.80600
O1441       O  0.78323531  0.02398628  0.09270868    -0.80700
O1442       O  0.63993069  0.44677278  0.05008803    -0.80600
O1443       O  0.78947473  0.06587324  0.05673143    -0.80700
O1444       O  0.67199359  0.42878225  0.07342531    -0.80600
O1445       O  0.67336532  0.02018971  0.05212236    -0.80600
O1446       O  0.74797716  0.45133858  0.08938898    -0.80700
C1447       C  0.73199686  0.41857460  0.07986060     1.09100
C1448       C  0.69475986  0.03861770  0.07610319     1.08900
C1449       C  0.79724765  0.05700663  0.08507376     1.09100
C1450       C  0.64357437  0.42907590  0.07345506     1.09000
O1451       O  0.65716968  0.39521021  0.50830820    -0.80600
O1452       O  0.77134074  0.03481006  0.48814805    -0.80700
O1453       O  0.77089502  0.45127729  0.51656025    -0.80600
O1454       O  0.70559598  0.02717822  0.48368346    -0.80600
O1455       O  0.74469253  0.07702119  0.51324224    -0.80700
O1456       O  0.72652535  0.44436921  0.48454682    -0.80600
O1457       O  0.66678922  0.44419740  0.48069480    -0.80600
O1458       O  0.80761723  0.02704211  0.52083423    -0.80700
Co1459     Co  0.69743161  0.43771086  0.02802029     1.51500
Co1460     Co  0.74378578  0.03567993  0.03100778     1.51700
Co1461     Co  0.77508126  0.48842381  0.05309919     1.51600
Co1462     Co  0.67883064  0.48446535  0.01813790     1.51500
O1463       O  0.72778358  0.48697708  0.04176271    -1.42600
C1464       C  0.64773747  0.40930244  0.48533633     1.09000
C1465       C  0.80277367  0.04078304  0.49412252     1.09100
C1466       C  0.75141290  0.43819696  0.48938870     1.09000
C1467       C  0.72095875  0.06193018  0.48950080     1.09000
C1468       C  0.66052026  0.09688298  0.32344092    -0.06000
C1469       C  0.67779676  0.08254930  0.30293704     0.08200
C1470       C  0.69787385  0.07018386  0.31940205    -0.03300
C1471       C  0.70381039  0.07541624  0.35594975    -0.01600
C1472       C  0.68778310  0.09140450  0.37693400    -0.05200
C1473       C  0.66494845  0.10088395  0.36023329     0.01800
C1474       C  0.67881489  0.08479089  0.26369027     0.08600
C1475       C  0.71285909  0.05243902  0.29834994     0.34500
C1476       C  0.64554557  0.11462022  0.38042418     0.38000
C1477       C  0.70872784  0.11491843  0.24694886    -0.05600
C1478       C  0.71054234  0.11754497  0.21001670     0.01600
C1479       C  0.68305591  0.08932273  0.18944177    -0.05200
C1480       C  0.65263058  0.05960991  0.20626486    -0.01400
C1481       C  0.65028605  0.05762488  0.24335764    -0.04000
C1482       C  0.73770384  0.14321787  0.26795230     0.35300
C1483       C  0.62312010  0.03178051  0.18542973     0.38900
C1484       C  0.74139055  0.14875676  0.19319122     0.38000
C1485       C  0.61828989  0.02807962  0.26063172     0.35000
C1486       C  0.63833896  0.10780414  0.30632011     0.35600
C1487       C  0.72815673  0.06596814  0.37094901     0.38900
N1488       N  0.76611581  0.17328922  0.17948154    -0.39200
N1489       N  0.76064527  0.16554738  0.28500608    -0.40800
N1490       N  0.59958013  0.00972286  0.16870203    -0.38500
N1491       N  0.60763621  0.51610472  0.27799009    -0.40900
N1492       N  0.72457635  0.03808414  0.28155983    -0.40700
N1493       N  0.74769859  0.05841139  0.38255369    -0.38300
N1494       N  0.63004574  0.12573998  0.39622241    -0.39400
N1495       N  0.62051057  0.11615219  0.29237500    -0.41000
C1496       C  0.86014458  0.24722404  0.31804602    -0.06000
C1497       C  0.86965871  0.28056997  0.30290427     0.08200
C1498       C  0.87827125  0.31076390  0.32480602    -0.03300
C1499       C  0.87733705  0.30750449  0.36174617    -0.01600
C1500       C  0.86711555  0.27390056  0.37681643    -0.05200
C1501       C  0.85779677  0.24354504  0.35489585     0.01800
C1502       C  0.86724819  0.28230795  0.26389187     0.08600
C1503       C  0.88746363  0.34489354  0.30935201     0.34500
C1504       C  0.84382815  0.20812211  0.37017575     0.38000
C1505       C  0.83314541  0.26959490  0.24903366    -0.05600
C1506       C  0.82934541  0.26666234  0.21215514     0.01600
C1507       C  0.85966308  0.27505095  0.18949130    -0.05200
C1508       C  0.89432440  0.28943639  0.20485864    -0.01400
C1509       C  0.89792573  0.29297813  0.24179848    -0.04000
C1510       C  0.80150038  0.25797417  0.27209003     0.35300
C1511       C  0.92677509  0.30125120  0.18302939     0.38900
C1512       C  0.79370574  0.25414603  0.19832574     0.38000
C1513       C  0.93308863  0.30648709  0.25729059     0.35000
C1514       C  0.85242140  0.21672656  0.29526994     0.35600
C1515       C  0.88574217  0.33832373  0.38439619     0.38900
N1516       N  0.76510652  0.24440594  0.18786163    -0.39200
N1517       N  0.77641866  0.24851006  0.29068148    -0.40800
N1518       N  0.95275398  0.31057989  0.16581396    -0.38500
N1519       N  0.96110294  0.31716337  0.26965226    -0.40900
N1520       N  0.89477148  0.37219435  0.29713964    -0.40700
N1521       N  0.89221373  0.36271160  0.40267703    -0.38300
N1522       N  0.83185048  0.17965334  0.38221942    -0.39400
N1523       N  0.84671646  0.19315508  0.27617865    -0.41000
C1524       C  0.88595810  0.13465730  0.32773295    -0.06000
C1525       C  0.86894841  0.10250523  0.30740958     0.08200
C1526       C  0.85009432  0.06846758  0.32398169    -0.03300
C1527       C  0.84901188  0.06648377  0.36096547    -0.01600
C1528       C  0.86559296  0.09872940  0.38174050    -0.05200
C1529       C  0.88376506  0.13293703  0.36471397     0.01800
C1530       C  0.86751811  0.10466995  0.26856418     0.08600
C1531       C  0.83095102  0.03547971  0.30287317     0.34500
C1532       C  0.89896044  0.16663181  0.38482006     0.38000
C1533       C  0.89397583  0.10430078  0.24611933    -0.05600
C1534       C  0.89204714  0.10634746  0.20936565     0.01600
C1535       C  0.86351954  0.10849567  0.19519397    -0.05200
C1536       C  0.83729830  0.10912594  0.21780607    -0.01400
C1537       C  0.83951589  0.10759244  0.25441210    -0.04000
C1538       C  0.92319301  0.10207487  0.26090856     0.35300
C1539       C  0.80823033  0.11170991  0.20328479     0.39200
C1540       C  0.91870014  0.10521702  0.18609522     0.38000
C1541       C  0.81370350  0.11003577  0.27785866     0.35000
C1542       C  0.90497532  0.16962253  0.31038854     0.35600
C1543       C  0.83130912  0.03110941  0.37732742     0.38900
N1544       N  0.93988043  0.10423059  0.16745112    -0.39200
N1545       N  0.94657502  0.10037127  0.27267958    -0.40800
N1546       N  0.78502912  0.11338391  0.19114090    -0.38500
N1547       N  0.79402426  0.11279468  0.29716852    -0.40900
N1548       N  0.81539051  0.00920085  0.28606831    -0.40700
N1549       N  0.81704797  0.00295440  0.39052501    -0.38300
N1550       N  0.91102875  0.19363889  0.40058799    -0.39400
N1551       N  0.92018135  0.19746650  0.29652400    -0.41000
C1552       C  0.59667109  0.19333119  0.24773796    -0.06000
C1553       C  0.56913390  0.19363203  0.26813200     0.08200
C1554       C  0.54059072  0.19358711  0.25139989    -0.03300
C1555       C  0.54014819  0.19468950  0.21431508    -0.01600
C1556       C  0.56797754  0.19451098  0.19310603    -0.05200
C1557       C  0.59547266  0.19223741  0.21064578     0.01800
C1558       C  0.57121759  0.19578254  0.30745737     0.08600
C1559       C  0.51216991  0.19366618  0.27274140     0.34500
C1560       C  0.62274654  0.18825066  0.19133578     0.38000
C1561       C  0.58263893  0.22911152  0.32497350    -0.05600
C1562       C  0.58573729  0.23176423  0.36183046     0.01600
C1563       C  0.57772986  0.20104363  0.38136733    -0.05200
C1564       C  0.56493929  0.16733934  0.36409611    -0.01400
C1565       C  0.56201603  0.16477209  0.32714413    -0.04000
C1566       C  0.59098424  0.26057085  0.30482764     0.35300
C1567       C  0.55293909  0.13500568  0.38459757     0.38900
C1568       C  0.59706461  0.26607886  0.37963095     0.38000
C1569       C  0.54914632  0.13020709  0.30935397     0.35000
C1570       C  0.62732624  0.19582339  0.26514221     0.35600
C1571       C  0.51121082  0.19704743  0.19890390     0.38900
N1572       N  0.60604314  0.29342841  0.39381679    -0.39200
N1573       N  0.59707936  0.28517226  0.28817546    -0.40800
N1574       N  0.54285453  0.10921917  0.40115047    -0.38500
N1575       N  0.53895129  0.10265510  0.29509751    -0.40900
N1576       N  0.98975154  0.19387460  0.28999984    -0.40700
N1577       N  0.98794580  0.19888699  0.18703435    -0.38300
N1578       N  0.64466408  0.18501107  0.17639497    -0.39400
N1579       N  0.65195846  0.19833720  0.27906029    -0.41000
C1580       C  0.56078409  0.38888970  0.24337540    -0.06000
C1581       C  0.58313019  0.38031030  0.26162916     0.08200
C1582       C  0.60677576  0.37233693  0.24278067    -0.03300
C1583       C  0.60664684  0.37094104  0.20579822    -0.01600
C1584       C  0.58414500  0.37925108  0.18753971    -0.05200
C1585       C  0.56136167  0.38844747  0.20627446     0.01800
C1586       C  0.58053619  0.37774069  0.30075216     0.08600
C1587       C  0.63138583  0.36583345  0.26154099     0.34500
C1588       C  0.53828471  0.39701135  0.18737672     0.38000
C1589       C  0.55835592  0.34363500  0.31665572    -0.05600
C1590       C  0.55716792  0.34053366  0.35355036     0.01600
C1591       C  0.57867990  0.37178716  0.37495937    -0.05200
C1592       C  0.59978445  0.40623629  0.35865900    -0.01400
C1593       C  0.60098215  0.40899929  0.32171995    -0.04000
C1594       C  0.53742200  0.31147379  0.29477970     0.35300
C1595       C  0.61968815  0.43923870  0.37963049     0.38900
C1596       C  0.53423420  0.30479519  0.36885218     0.38000
C1597       C  0.62413012  0.44393855  0.30507231     0.35000
C1598       C  0.53730205  0.39815241  0.26283483     0.35600
C1599       C  0.62849384  0.35947918  0.18646927     0.38900
N1600       N  0.01551851  0.27624489  0.38078726    -0.39200
N1601       N  0.02097582  0.28583133  0.27733176    -0.40800
N1602       N  0.63561137  0.46565953  0.39618806    -0.38500
N1603       N  0.64285820  0.47173928  0.29177556    -0.40900
N1604       N  0.65117382  0.36090553  0.27659942    -0.40700
N1605       N  0.64549596  0.34996134  0.17086692    -0.38300
N1606       N  0.51983686  0.40382691  0.17232340    -0.39400
N1607       N  0.51867295  0.40565779  0.27841571    -0.41000
C1608       C  0.77809412  0.36789602  0.24501601    -0.06000
C1609       C  0.76365315  0.38487968  0.26580551     0.08200
C1610       C  0.74745734  0.40159652  0.24975744    -0.03300
C1611       C  0.74348650  0.39939157  0.21295613    -0.01600
C1612       C  0.75611969  0.38041541  0.19164343    -0.05200
C1613       C  0.77481658  0.36596390  0.20813524     0.01800
C1614       C  0.76260201  0.38246420  0.30490903     0.08600
C1615       C  0.73385020  0.42019917  0.27152100     0.34500
C1616       C  0.79153484  0.34961616  0.18757246     0.38000
C1617       C  0.78922605  0.41139909  0.32529062    -0.05600
C1618       C  0.78679536  0.40952275  0.36232381     0.01600
C1619       C  0.75743609  0.37872817  0.37915647    -0.05200
C1620       C  0.73175709  0.34899131  0.35841970    -0.01400
C1621       C  0.73414039  0.35114179  0.32145856    -0.04000
C1622       C  0.81894632  0.44318197  0.30806794     0.35300
C1623       C  0.70245032  0.31623255  0.37477976     0.38900
C1624       C  0.81530845  0.43874875  0.38297983     0.38000
C1625       C  0.70675872  0.32143254  0.30025405     0.35000
C1626       C  0.79585656  0.35183132  0.26188923     0.35600
C1627       C  0.72548516  0.41614835  0.19792315     0.38900
N1628       N  0.83817946  0.46197538  0.39940883    -0.39200
N1629       N  0.84267418  0.46856250  0.29436423    -0.40800
N1630       N  0.67945047  0.28981351  0.38774144    -0.38500
N1631       N  0.68500668  0.29791030  0.28318723    -0.40900
N1632       N  0.72290696  0.43484364  0.28898378    -0.40700
N1633       N  0.71135716  0.42997219  0.18643078    -0.38300
N1634       N  0.80494441  0.33652376  0.17140048    -0.39400
N1635       N  0.80993356  0.33902014  0.27548446    -0.41000
C1636       C  0.74918386  0.37501224  0.65281091     0.79700
N1637       N  0.74453653  0.39883257  0.63452966    -0.78600
C1638       C  0.73622110  0.39300482  0.59996438     0.82200
N1639       N  0.73438560  0.36441558  0.58304464    -0.78500
C1640       C  0.74015644  0.34119969  0.60035089     0.82300
N1641       N  0.74662054  0.34578443  0.63537711    -0.80200
C1642       C  0.75256531  0.37840497  0.91807913     0.79700
N1643       N  0.74271347  0.34791513  0.93657161    -0.78600
C1644       C  0.73528812  0.34659924  0.97161777     0.82200
N1645       N  0.73919698  0.37648831  0.98842886    -0.78500
C1646       C  0.75016520  0.40749935  0.97046337     0.82300
N1647       N  0.75579963  0.40803695  0.93512586    -0.80200
C1648       C  0.58032009  0.36837677  0.91381118     0.79700
N1649       N  0.61213624  0.39006319  0.93094330    -0.78600
C1650       C  0.61423133  0.38585166  0.96585106     0.82200
N1651       N  0.58433202  0.36014714  0.98371325    -0.78500
C1652       C  0.55242384  0.33877112  0.96716548     0.82300
N1653       N  0.55054419  0.34264817  0.93221343    -0.80200
C1654       C  0.58420047  0.37751076  0.64883505     0.79700
N1655       N  0.55941366  0.34626222  0.63226567    -0.78600
C1656       C  0.56210694  0.34295371  0.59689647     0.82200
N1657       N  0.58865238  0.37105632  0.57824241    -0.78500
C1658       C  0.61279696  0.40246797  0.59443505     0.82300
N1659       N  0.61149363  0.40540377  0.62999371    -0.80200
C1660       C  0.56977005  0.19890739  0.65351536     0.79700
N1661       N  0.54155444  0.19635254  0.63575900    -0.78600
C1662       C  0.54483997  0.20292433  0.60065913     0.82200
N1663       N  0.57608169  0.21220461  0.58309817    -0.78500
C1664       C  0.60386047  0.21405943  0.59993584     0.82300
N1665       N  0.60070750  0.20742755  0.63492359    -0.80200
C1666       C  0.58177145  0.20397884  0.91995392     0.79700
N1667       N  0.60964417  0.20313273  0.93476553    -0.78600
C1668       C  0.61376263  0.20709916  0.97018203     0.82200
N1669       N  0.59047328  0.21263494  0.99030789    -0.78500
C1670       C  0.56271847  0.21350053  0.97573932     0.82300
N1671       N  0.55858701  0.20942521  0.94042963    -0.80200
C1672       C  0.86491479  0.09682100  0.92089731     0.79700
N1673       N  0.83513135  0.07046791  0.93876881    -0.78600
C1674       C  0.83536654  0.06855270  0.97432490     0.82200
N1675       N  0.86522479  0.09426274  0.99225433    -0.78500
C1676       C  0.89469005  0.12140941  0.97462369     0.82300
N1677       N  0.89415452  0.12223144  0.93912073    -0.80200
C1678       C  0.86057375  0.11010136  0.65683296     0.79700
N1679       N  0.88565081  0.14025055  0.63859577    -0.78600
C1680       C  0.87993404  0.14304412  0.60424200     0.82200
N1681       N  0.85014861  0.11607156  0.58862338    -0.78500
C1682       C  0.82606209  0.08579497  0.60588286     0.82300
N1683       N  0.83103629  0.08247871  0.64024521    -0.80200
C1684       C  0.85506755  0.26760047  0.65042995     0.79700
N1685       N  0.87710721  0.25894855  0.63179961    -0.78600
C1686       C  0.87255910  0.25121889  0.59674422     0.82200
N1687       N  0.84621272  0.25251121  0.58022084    -0.78500
C1688       C  0.82446646  0.26147605  0.59804523     0.82300
N1689       N  0.82849649  0.26864045  0.63313615    -0.80200
C1690       C  0.86600110  0.27043591  0.91548261     0.79700
N1691       N  0.83469974  0.26039645  0.93407864    -0.78600
C1692       C  0.83312865  0.25536954  0.96934031     0.82200
N1693       N  0.86316027  0.26142124  0.98593240    -0.78500
C1694       C  0.89474926  0.27228665  0.96773414     0.82300
N1695       N  0.89577321  0.27564977  0.93222548    -0.80200
C1696       C  0.69501521  0.09835360  0.91572417     0.79700
N1697       N  0.69383253  0.12603142  0.93254492    -0.78600
C1698       C  0.70002617  0.13205637  0.96757007     0.82200
N1699       N  0.70926357  0.11140421  0.98553189    -0.78500
C1700       C  0.71128742  0.08421215  0.96912542     0.82300
N1701       N  0.70318733  0.07725769  0.93454031    -0.80200
C1702       C  0.68666260  0.09062501  0.65047288     0.79700
N1703       N  0.68582750  0.06276421  0.63209978    -0.78600
C1704       C  0.69028734  0.06470321  0.59654526     0.82200
N1705       N  0.69765681  0.09499069  0.57974383    -0.78500
C1706       C  0.69924855  0.12296730  0.59776867     0.82300
N1707       N  0.69311250  0.12063627  0.63312229    -0.80200
O1708       O  0.69615836  0.30146657  0.01294074    -0.80600
O1709       O  0.72196834  0.19319623  0.98447601    -0.80600
O1710       O  0.78030924  0.25768381  0.98614274    -0.80700
O1711       O  0.63507200  0.18560164  0.01336241    -0.80600
O1712       O  0.78873688  0.21724134  0.01186810    -0.80700
O1713       O  0.67585358  0.23419456  0.98497756    -0.80600
O1714       O  0.67400882  0.15073397  0.01261218    -0.80600
O1715       O  0.73979114  0.29564181  0.98731958    -0.80700
C1716       C  0.72329173  0.31332665  0.99164363     1.09100
C1717       C  0.69682628  0.16032742  0.98702283     1.08900
C1718       C  0.79933696  0.24284808  0.98996117     1.09100
C1719       C  0.64364536  0.20726379  0.98794264     1.09000
O1720       O  0.64547529  0.23896353  0.55193622    -0.80600
O1721       O  0.76610834  0.22848004  0.57702540    -0.80700
O1722       O  0.76269720  0.31647428  0.55878251    -0.80600
O1723       O  0.68758034  0.16869737  0.58690619    -0.80600
O1724       O  0.72611185  0.16496732  0.55108944    -0.80700
O1725       O  0.70760231  0.28274701  0.57731764    -0.80600
O1726       O  0.65011541  0.20243116  0.58712577    -0.80600
O1727       O  0.79987185  0.28234542  0.55736190    -0.80700
Co1728     Co  0.69541461  0.26023196  0.53045858     1.51500
Co1729     Co  0.74564017  0.21424414  0.53013701     1.51700
Co1730     Co  0.76389266  0.28124118  0.52450458     1.51600
Co1731     Co  0.66501954  0.18029509  0.54943246     1.51500
O1732       O  0.71305510  0.22989506  0.54342201    -1.42600
C1733       C  0.63522897  0.21959050  0.57930764     1.09000
C1734       C  0.79458782  0.25855828  0.57893728     1.09100
C1735       C  0.73765663  0.31118480  0.58006926     1.09000
C1736       C  0.70547587  0.15428454  0.57833225     1.09000
O1737       O  0.54564985  0.30144329  0.54954829    -0.80600
O1738       O  0.89440882  0.17296559  0.55103782    -0.80600
O1739       O  0.93072055  0.26136663  0.58551109    -0.80700
O1740       O  0.99049960  0.17366267  0.56862860    -0.80600
O1741       O  0.88990949  0.23127797  0.54498668    -0.80700
O1742       O  0.52187065  0.23398476  0.57235862    -0.80600
O1743       O  0.93952554  0.19067113  0.58797595    -0.80600
O1744       O  0.00323534  0.29323784  0.58704137    -0.80700
C1745       C  0.53618343  0.31013052  0.57800026     1.09100
C1746       C  0.90600621  0.17189953  0.58112490     1.08900
C1747       C  0.89850825  0.24621059  0.57543644     1.09100
C1748       C  0.51680951  0.20296635  0.58091880     1.09000
O1749       O  0.55846657  0.25666669  0.01058455    -0.80600
O1750       O  0.92999036  0.24734331  0.97718128    -0.80700
O1751       O  0.00955496  0.31837813  0.01427909    -0.80600
O1752       O  0.93420607  0.15359890  0.02310156    -0.80600
O1753       O  0.93057077  0.18492700  0.98199389    -0.80700
O1754       O  0.51441097  0.27745884  0.98242889    -0.80600
O1755       O  0.00689744  0.20386462  0.00355512    -0.80600
O1756       O  0.93506446  0.28836378  0.01527095    -0.80700
Co1757     Co  0.51478970  0.25339665  0.52549098     1.51500
Co1758     Co  0.91409314  0.21057934  0.51368504     1.51700
Co1759     Co  0.96958760  0.28768293  0.55017589     1.51600
Co1760     Co  0.97280777  0.20018200  0.54719641     1.51500
O1761       O  0.96365560  0.23966121  0.53428414    -1.42600
C1762       C  0.54174631  0.22499030  0.99757571     1.09000
C1763       C  0.92397016  0.27188750  0.98581410     1.09100
C1764       C  0.52186872  0.30973413  0.98718907     1.09000
C1765       C  0.92254724  0.15445422  0.99326535     1.09000
O1766       O  0.71495054  0.40877847  0.55123816    -0.80600
O1767       O  0.72442181  0.04089263  0.57651303    -0.80600
O1768       O  0.78323351  0.02401546  0.59271406    -0.80700
O1769       O  0.63991155  0.44678706  0.55008096    -0.80600
O1770       O  0.78946295  0.06589921  0.55673788    -0.80700
O1771       O  0.67197679  0.42880173  0.57342300    -0.80600
O1772       O  0.67335216  0.02019829  0.55213617    -0.80600
O1773       O  0.74796080  0.45136890  0.58940033    -0.80700
C1774       C  0.73198944  0.41860565  0.57986943     1.09100
C1775       C  0.69475033  0.03863234  0.57611203     1.08900
C1776       C  0.79723897  0.05703526  0.58507954     1.09100
C1777       C  0.64355567  0.42909184  0.57344899     1.09000
O1778       O  0.65717407  0.39518932  0.00830928    -0.80600
O1779       O  0.77134341  0.03477987  0.98814143    -0.80700
O1780       O  0.77090190  0.45124603  0.01654653    -0.80600
O1781       O  0.70561508  0.02716343  0.98367184    -0.80600
O1782       O  0.74471055  0.07700585  0.01323142    -0.80700
O1783       O  0.72652819  0.44434065  0.98454149    -0.80600
O1784       O  0.66679834  0.44417830  0.98069586    -0.80600
O1785       O  0.80761552  0.02700520  0.02082689    -0.80700
Co1786     Co  0.69742189  0.43773457  0.52802162     1.51500
Co1787     Co  0.74377668  0.03569904  0.53101451     1.51700
Co1788     Co  0.77506532  0.48845461  0.55311004     1.51600
Co1789     Co  0.67881188  0.48448266  0.51813520     1.51500
O1790       O  0.72776634  0.48700161  0.54176454    -1.42600
C1791       C  0.64774555  0.40928317  0.98533558     1.09000
C1792       C  0.80277407  0.04074712  0.99411446     1.09100
C1793       C  0.75141460  0.43816568  0.98937858     1.09000
C1794       C  0.72097613  0.06191461  0.98949020     1.09000
C1795       C  0.66047652  0.09684157  0.82345197    -0.06000
C1796       C  0.67774787  0.08250615  0.80294265     0.08200
C1797       C  0.69781557  0.07012660  0.81940226    -0.03300
C1798       C  0.70375371  0.07535214  0.85594987    -0.01600
C1799       C  0.68773926  0.09135035  0.87693870    -0.05200
C1800       C  0.66490781  0.10083787  0.86024396     0.01800
C1801       C  0.67877539  0.08476536  0.76369740     0.08600
C1802       C  0.71279240  0.05237668  0.79834545     0.34500
C1803       C  0.64551550  0.11458277  0.88043983     0.38000
C1804       C  0.70868128  0.11491150  0.74697002    -0.05600
C1805       C  0.71051148  0.11754790  0.71003799     0.01600
C1806       C  0.68304012  0.08932582  0.68945041    -0.05200
C1807       C  0.65262082  0.05959433  0.70626074    -0.01400
C1808       C  0.65026491  0.05759441  0.74335230    -0.04000
C1809       C  0.73763378  0.14321938  0.76798825     0.35300
C1810       C  0.62313059  0.03175472  0.68541366     0.38900
C1811       C  0.74136791  0.14876246  0.69322533     0.38000
C1812       C  0.61827422  0.02802886  0.76061244     0.35000
C1813       C  0.63830126  0.10777390  0.80633682     0.35600
C1814       C  0.72809090  0.06588876  0.87094347     0.38900
N1815       N  0.76610217  0.17329474  0.67952546    -0.39200
N1816       N  0.76055502  0.16555607  0.78505447    -0.40800
N1817       N  0.59960799  0.00968745  0.66867638    -0.38500
N1818       N  0.60753068  0.51595179  0.77795102    -0.40900
N1819       N  0.72450298  0.03801582  0.78155494    -0.40700
N1820       N  0.74762541  0.05832019  0.88254416    -0.38300
N1821       N  0.63002502  0.12571065  0.89624169    -0.39400
N1822       N  0.62047895  0.11613347  0.79239770    -0.41000
C1823       C  0.86013385  0.24721229  0.81805508    -0.06000
C1824       C  0.86964489  0.28055512  0.80290877     0.08200
C1825       C  0.87826040  0.31075353  0.82480516    -0.03300
C1826       C  0.87734268  0.30750421  0.86174529    -0.01600
C1827       C  0.86712555  0.27390350  0.87681994    -0.05200
C1828       C  0.85779784  0.24354246  0.85490491     0.01800
C1829       C  0.86723237  0.28228586  0.76389707     0.08600
C1830       C  0.88743274  0.34487519  0.80934669     0.34500
C1831       C  0.84383160  0.20812274  0.87019107     0.38000
C1832       C  0.83313068  0.26958087  0.74904046    -0.05600
C1833       C  0.82932886  0.26664626  0.71216242     0.01600
C1834       C  0.85964227  0.27502061  0.68949822    -0.05200
C1835       C  0.89430172  0.28938859  0.70486498    -0.01400
C1836       C  0.89790560  0.29293579  0.74180386    -0.04000
C1837       C  0.80148807  0.25796817  0.77209824     0.35300
C1838       C  0.92674928  0.30118004  0.68303733     0.38900
C1839       C  0.79369160  0.25414282  0.69833410     0.38000
C1840       C  0.93306682  0.30643006  0.75729493     0.35000
C1841       C  0.85239475  0.21670594  0.79528481     0.35600
C1842       C  0.88576330  0.33833091  0.88439064     0.38900
N1843       N  0.76509437  0.24441246  0.68787076    -0.39200
N1844       N  0.77640849  0.24850980  0.79069135    -0.40800
N1845       N  0.95272617  0.31048964  0.66582453    -0.38500
N1846       N  0.96108085  0.31709608  0.76965313    -0.40900
N1847       N  0.89472143  0.37216910  0.79713211    -0.40700
N1848       N  0.89224963  0.36272574  0.90266738    -0.38300
N1849       N  0.83185534  0.17965624  0.88223940    -0.39400
N1850       N  0.84667427  0.19312467  0.77620055    -0.41000
C1851       C  0.88595076  0.13465120  0.82773468    -0.06000
C1852       C  0.86894238  0.10250320  0.80740565     0.08200
C1853       C  0.85009221  0.06846196  0.82397041    -0.03300
C1854       C  0.84900953  0.06647048  0.86095327    -0.01600
C1855       C  0.86558462  0.09871162  0.88173463    -0.05200
C1856       C  0.88375215  0.13292298  0.86471509     0.01800
C1857       C  0.86750789  0.10467558  0.76856271     0.08600
C1858       C  0.83095477  0.03547855  0.80285478     0.34500
C1859       C  0.89893328  0.16661261  0.88482776     0.38000
C1860       C  0.89397116  0.10432386  0.74611238    -0.05600
C1861       C  0.89204609  0.10639040  0.70936139     0.01600
C1862       C  0.86350716  0.10852442  0.69519711    -0.05200
C1863       C  0.83727162  0.10912275  0.71781420    -0.01400
C1864       C  0.83949376  0.10758377  0.75441863    -0.04000
C1865       C  0.92318380  0.10208388  0.76089282     0.35300
C1866       C  0.80817979  0.11167281  0.70330106     0.39200
C1867       C  0.91871385  0.10529267  0.68608557     0.38000
C1868       C  0.81366864  0.10999999  0.77787071     0.35000
C1869       C  0.90497440  0.16961995  0.81039664     0.35600
C1870       C  0.83131056  0.03109316  0.87730770     0.38900
N1871       N  0.93990676  0.10433395  0.66743724    -0.39200
N1872       N  0.94655915  0.10036377  0.77265650    -0.40800
N1873       N  0.78495639  0.11331643  0.69116759    -0.38500
N1874       N  0.79397586  0.11273628  0.79718134    -0.40900
N1875       N  0.81539947  0.00920418  0.78604287    -0.40700
N1876       N  0.81705130  0.00293551  0.89049945    -0.38300
N1877       N  0.91098811  0.19361539  0.90060107    -0.39400
N1878       N  0.92018668  0.19746636  0.79653660    -0.41000
C1879       C  0.59667905  0.19336052  0.74773713    -0.06000
C1880       C  0.56914520  0.19366262  0.76813570     0.08200
C1881       C  0.54059938  0.19361674  0.75140830    -0.03300
C1882       C  0.54014813  0.19471224  0.71432323    -0.01600
C1883       C  0.56797485  0.19453350  0.69310997    -0.05200
C1884       C  0.59547070  0.19225784  0.71064550     0.01800
C1885       C  0.57122181  0.19579054  0.80746186     0.08600
C1886       C  0.51218399  0.19369871  0.77275594     0.34500
C1887       C  0.62272796  0.18824798  0.69133121     0.38000
C1888       C  0.58263779  0.22910804  0.82499916    -0.05600
C1889       C  0.58572198  0.23173480  0.86185743     0.01600
C1890       C  0.57771089  0.20100157  0.88137423    -0.05200
C1891       C  0.56492596  0.16730844  0.86408226    -0.01400
C1892       C  0.56201057  0.16476553  0.82712913    -0.04000
C1893       C  0.59099051  0.26058271  0.80487586     0.35300
C1894       C  0.55292343  0.13496165  0.88456287     0.38900
C1895       C  0.59703630  0.26603565  0.87968151     0.38000
C1896       C  0.54913449  0.13020989  0.80931719     0.35000
C1897       C  0.62733884  0.19585680  0.76513570     0.35600
C1898       C  0.51119945  0.19705309  0.69891557     0.38900
N1899       N  0.60600225  0.29337214  0.89388891    -0.39200
N1900       N  0.59709410  0.28520104  0.78824683    -0.40800
N1901       N  0.54283722  0.10916381  0.90109820    -0.38500
N1902       N  0.53893269  0.10266622  0.79504117    -0.40900
N1903       N  0.98979346  0.19394589  0.79001987    -0.40700
N1904       N  0.98801475  0.19902847  0.68705440    -0.38300
N1905       N  0.64463015  0.18498708  0.67638606    -0.39400
N1906       N  0.65197504  0.19837431  0.77904908    -0.41000
C1907       C  0.56080391  0.38892371  0.74338124    -0.06000
C1908       C  0.58315717  0.38034652  0.76162603     0.08200
C1909       C  0.60679546  0.37236993  0.74276709    -0.03300
C1910       C  0.60665709  0.37097547  0.70578460    -0.01600
C1911       C  0.58414246  0.37927567  0.68753619    -0.05200
C1912       C  0.56136394  0.38847183  0.70628022     0.01800
C1913       C  0.58056666  0.37776891  0.80074931     0.08600
C1914       C  0.63140445  0.36585596  0.76151549     0.34500
C1915       C  0.53827363  0.39702500  0.68739173     0.38000
C1916       C  0.55837468  0.34366132  0.81664611    -0.05600
C1917       C  0.55717418  0.34055160  0.85354077     0.01600
C1918       C  0.57868627  0.37179823  0.87495800    -0.05200
C1919       C  0.59980363  0.40625005  0.85866407    -0.01400
C1920       C  0.60101941  0.40902061  0.82172430    -0.04000
C1921       C  0.53744920  0.31150447  0.79476231     0.35300
C1922       C  0.61970118  0.43924795  0.87964310     0.38900
C1923       C  0.53422824  0.30481076  0.86883367     0.38000
C1924       C  0.62420081  0.44395823  0.80508418     0.35000
C1925       C  0.53732986  0.39819125  0.76284913     0.35600
C1926       C  0.62851161  0.35952945  0.68644435     0.38900
N1927       N  0.01558058  0.27624491  0.88075731    -0.39200
N1928       N  0.02100869  0.28587576  0.77730748    -0.40800
N1929       N  0.63561778  0.46566485  0.89620752    -0.38500
N1930       N  0.64295982  0.47175728  0.79179510    -0.40900
N1931       N  0.65119259  0.36091772  0.77656035    -0.40700
N1932       N  0.64552131  0.35002694  0.67083188    -0.38300
N1933       N  0.51981479  0.40383091  0.67234511    -0.39400
N1934       N  0.51870716  0.40570196  0.77843446    -0.41000
C1935       C  0.77810448  0.36790207  0.74500787    -0.06000
C1936       C  0.76367476  0.38489368  0.76580114     0.08200
C1937       C  0.74748913  0.40162299  0.74975821    -0.03300
C1938       C  0.74352301  0.39942939  0.71295679    -0.01600
C1939       C  0.75614647  0.38044792  0.69163907    -0.05200
C1940       C  0.77482712  0.36597608  0.70812740     0.01800
C1941       C  0.76261609  0.38246564  0.80490328     0.08600
C1942       C  0.73387993  0.42021972  0.77152808     0.34500
C1943       C  0.79152004  0.34960343  0.68756349     0.38000
C1944       C  0.78924970  0.41138419  0.82529227    -0.05600
C1945       C  0.78681129  0.40949696  0.86232472     0.01600
C1946       C  0.75744316  0.37870171  0.87914853    -0.05200
C1947       C  0.73175756  0.34897831  0.85840355    -0.01400
C1948       C  0.73413755  0.35114790  0.82144371    -0.04000
C1949       C  0.81898296  0.44316505  0.80807834     0.35300
C1950       C  0.70244840  0.31621412  0.87475354     0.38900
C1951       C  0.81532107  0.43871597  0.88298956     0.38000
C1952       C  0.70672966  0.32146898  0.80023155     0.35000
C1953       C  0.79584961  0.35181742  0.76187751     0.35600
C1954       C  0.72552944  0.41619689  0.69792975     0.38900
N1955       N  0.83818738  0.46193825  0.89942628    -0.39200
N1956       N  0.84272052  0.46854444  0.79438202    -0.40800
N1957       N  0.67944695  0.28978882  0.88770460    -0.38500
N1958       N  0.68495415  0.29797455  0.78315770    -0.40900
N1959       N  0.72293252  0.43485676  0.78899649    -0.40700
N1960       N  0.71140643  0.43002762  0.68644164    -0.38300
N1961       N  0.80490663  0.33648776  0.67139191    -0.39400
N1962       N  0.80991238  0.33899003  0.77546983    -0.41000
C1963       C  0.73780304  0.86738725  0.15248517     0.79700
N1964       N  0.73609162  0.89321204  0.13452683    -0.78600
C1965       C  0.73133086  0.89014865  0.09928753     0.82200
N1966       N  0.73030921  0.86233660  0.08145868    -0.78500
C1967       C  0.73329125  0.83720092  0.09862276     0.82300
N1968       N  0.73586784  0.83897646  0.13411231    -0.80200
C1969       C  0.74460674  0.87617376  0.41832643     0.79700
N1970       N  0.73498230  0.84576003  0.43659927    -0.78600
C1971       C  0.72990752  0.84503109  0.47188827     0.82200
N1972       N  0.73571051  0.87553965  0.48918148    -0.78500
C1973       C  0.74651664  0.90664871  0.47119301     0.82300
N1974       N  0.74992579  0.90651775  0.43556952    -0.80200
C1975       C  0.57810413  0.87067408  0.41338318     0.79700
N1976       N  0.61006368  0.89226450  0.43050249    -0.78600
C1977       C  0.61241974  0.88724254  0.46526453     0.82200
N1978       N  0.58278028  0.86082272  0.48282579    -0.78500
C1979       C  0.55088438  0.83965199  0.46630461     0.82300
N1980       N  0.54867097  0.84452846  0.43175266    -0.80200
C1981       C  0.58109249  0.87624255  0.14849608     0.79700
N1982       N  0.55670105  0.84513613  0.13147058    -0.78600
C1983       C  0.55968858  0.84245011  0.09604761     0.82200
N1984       N  0.58610196  0.87103422  0.07780336    -0.78500
C1985       C  0.60986369  0.90229120  0.09447734     0.82300
N1986       N  0.60821733  0.90465720  0.13006794    -0.80200
C1987       C  0.56570107  0.69488155  0.15199080     0.79700
N1988       N  0.53835782  0.69550626  0.13549917    -0.78600
C1989       C  0.54125359  0.70204161  0.10027035     0.82200
N1990       N  0.57148245  0.70902523  0.08195249    -0.78500
C1991       C  0.59829715  0.70796631  0.09771386     0.82300
N1992       N  0.59508796  0.70019086  0.13244890    -0.80200
C1993       C  0.57415056  0.69666927  0.41836140     0.79700
N1994       N  0.60252852  0.69643075  0.43287213    -0.78600
C1995       C  0.60863252  0.70301832  0.46790788     0.82200
N1996       N  0.58677580  0.71058808  0.48805406    -0.78500
C1997       C  0.55846150  0.71086734  0.47401390     0.82300
N1998       N  0.55228299  0.70398813  0.43905358    -0.80200
C1999       C  0.86824964  0.59255271  0.41788616     0.79700
N2000       N  0.83853889  0.56604518  0.43579155    -0.78600
C2001       C  0.83677636  0.56633485  0.47149343     0.82200
N2002       N  0.86471679  0.59396146  0.48972395    -0.78500
C2003       C  0.89396279  0.62136524  0.47240420     0.82300
N2004       N  0.89518075  0.62045284  0.43673436    -0.80200
C2005       C  0.85983614  0.61221378  0.15511236     0.79700
N2006       N  0.88356649  0.64325687  0.13735784    -0.78600
C2007       C  0.87715768  0.64616622  0.10323414     0.82200
N2008       N  0.84808351  0.61853374  0.08748286    -0.78500
C2009       C  0.82563174  0.58733327  0.10407903     0.82300
N2010       N  0.83141511  0.58369741  0.13815363    -0.80200
C2011       C  0.85120000  0.76758708  0.14821874     0.79700
N2012       N  0.87402475  0.75990584  0.12968445    -0.78600
C2013       C  0.87023778  0.75309747  0.09443131     0.82200
N2014       N  0.84404404  0.75459810  0.07772970    -0.78500
C2015       C  0.82167596  0.76279938  0.09557799     0.82300
N2016       N  0.82476898  0.76874177  0.13085661    -0.80200
C2017       C  0.86507037  0.77277414  0.41365838     0.79700
N2018       N  0.83372063  0.76284593  0.43221587    -0.78600
C2019       C  0.83194399  0.75773794  0.46747212     0.82200
N2020       N  0.86186514  0.76357153  0.48415122    -0.78500
C2021       C  0.89351219  0.77440602  0.46605210     0.82300
N2022       N  0.89468772  0.77785723  0.43059300    -0.80200
C2023       C  0.70279994  0.60207588  0.41238162     0.79700
N2024       N  0.69971556  0.62837035  0.42972196    -0.78600
C2025       C  0.70172367  0.63154071  0.46525298     0.82200
N2026       N  0.70917153  0.60957329  0.48345780    -0.78500
C2027       C  0.71317363  0.58371479  0.46647824     0.82300
N2028       N  0.70901430  0.57956866  0.43117341    -0.80200
C2029       C  0.69221009  0.59220352  0.14703127     0.79700
N2030       N  0.69098795  0.56434403  0.12854899    -0.78600
C2031       C  0.69293607  0.56535728  0.09296332     0.82200
N2032       N  0.69839726  0.59490678  0.07606321    -0.78500
C2033       C  0.70027689  0.62291370  0.09433669     0.82300
N2034       N  0.69667031  0.62147742  0.12988731    -0.80200
O2035       O  0.69033749  0.79850489  0.51209652    -0.80600
O2036       O  0.72128323  0.69230761  0.48202969    -0.80600
O2037       O  0.77765316  0.75806917  0.48345980    -0.80700
O2038       O  0.63154719  0.68137260  0.50965822    -0.80600
O2039       O  0.78814962  0.71961263  0.51036188    -0.80700
O2040       O  0.67088545  0.73175977  0.48269123    -0.80600
O2041       O  0.67334844  0.64875616  0.50935526    -0.80600
O2042       O  0.73397369  0.79338512  0.48550499    -0.80700
C2043       C  0.71776135  0.81123038  0.49104298     1.09100
C2044       C  0.69705936  0.65906675  0.48452264     1.08900
C2045       C  0.79784175  0.74456512  0.48788714     1.09100
C2046       C  0.63922171  0.70382117  0.48510337     1.09000
O2047       O  0.63984545  0.73399285  0.04972014    -0.80600
O2048       O  0.76308917  0.72929166  0.07513948    -0.80700
O2049       O  0.75659039  0.81416097  0.05620370    -0.80600
O2050       O  0.68547294  0.66634280  0.08347641    -0.80600
O2051       O  0.72626333  0.66554610  0.04850313    -0.80700
O2052       O  0.70212620  0.77856593  0.07570986    -0.80600
O2053       O  0.64504191  0.69699374  0.08375473    -0.80600
O2054       O  0.79642987  0.78257153  0.05437312    -0.80700
Co2055     Co  0.69009283  0.75695585  0.02852166     1.51500
Co2056     Co  0.74378586  0.71432561  0.02784753     1.51700
Co2057     Co  0.75940539  0.77998683  0.02184724     1.51600
Co2058     Co  0.66216333  0.67690660  0.04587758     1.51500
O2059       O  0.70919396  0.72752840  0.04030128    -1.42600
C2060       C  0.62957477  0.71375422  0.07648276     1.09000
C2061       C  0.79154352  0.75939754  0.07650236     1.09100
C2062       C  0.73152896  0.80783588  0.07789918     1.09000
C2063       C  0.70502429  0.65366152  0.07519699     1.09000
O2064       O  0.54367988  0.80137732  0.04824315    -0.80600
O2065       O  0.89176415  0.67460301  0.04929440    -0.80600
O2066       O  0.92834823  0.76245153  0.08371041    -0.80700
O2067       O  0.98652860  0.67387557  0.06852089    -0.80600
O2068       O  0.88784624  0.73306925  0.04282765    -0.80700
O2069       O  0.51954970  0.73410158  0.07104903    -0.80600
O2070       O  0.93672575  0.69292540  0.08655016    -0.80600
O2071       O  0.00090897  0.79305694  0.08543410    -0.80700
C2072       C  0.53395822  0.80989379  0.07669135     1.09100
C2073       C  0.90321501  0.67442620  0.07976003     1.08900
C2074       C  0.89628059  0.74790207  0.07332395     1.09100
C2075       C  0.51342911  0.70291046  0.08053288     1.09000
O2076       O  0.55575441  0.75547446  0.50865043    -0.80600
O2077       O  0.92804312  0.74866642  0.47522459    -0.80700
O2078       O  0.00792917  0.81894691  0.51304930    -0.80600
O2079       O  0.93105647  0.65463876  0.52182934    -0.80600
O2080       O  0.92720307  0.68522044  0.47985297    -0.80700
O2081       O  0.51284629  0.77812637  0.48094133    -0.80600
O2082       O  0.00353698  0.70312484  0.50259181    -0.80600
O2083       O  0.93376536  0.78992938  0.51346351    -0.80700
Co2084     Co  0.51260110  0.75348089  0.02387504     1.51500
Co2085     Co  0.91170717  0.71181212  0.01171679     1.51700
Co2086     Co  0.96768150  0.78844218  0.04857577     1.51600
Co2087     Co  0.96984108  0.70090977  0.04606921     1.51500
O2088       O  0.96148809  0.74049982  0.03224152    -1.42600
C2089       C  0.53836086  0.72359900  0.49598420     1.09000
C2090       C  0.92249135  0.77352010  0.48399777     1.09100
C2091       C  0.52034313  0.81041032  0.48599921     1.09000
C2092       C  0.92003046  0.65510899  0.49146581     1.09000
O2093       O  0.71150415  0.90814398  0.05132718    -0.80600
O2094       O  0.72772604  0.54275524  0.07221749    -0.80600
O2095       O  0.78526611  0.52505064  0.09074447    -0.80700
O2096       O  0.63748358  0.94713032  0.05064180    -0.80600
O2097       O  0.79195149  0.56578651  0.05305338    -0.80700
O2098       O  0.66927150  0.92900861  0.07421829    -0.80600
O2099       O  0.67516902  0.51962516  0.05005370    -0.80600
O2100       O  0.74554593  0.94977732  0.08994466    -0.80700
C2101       C  0.72864856  0.91709670  0.07984230     1.09100
C2102       C  0.69764182  0.53963027  0.07256650     1.08900
C2103       C  0.79880223  0.55777374  0.08244326     1.09100
C2104       C  0.64083968  0.92925175  0.07399886     1.09000
O2105       O  0.65444468  0.89607649  0.50853811    -0.80600
O2106       O  0.77280748  0.53220856  0.48484496    -0.80700
O2107       O  0.76845414  0.95096209  0.51716644    -0.80600
O2108       O  0.70648889  0.52614033  0.48147375    -0.80600
O2109       O  0.74808713  0.57657217  0.50865293    -0.80700
O2110       O  0.72410001  0.94463595  0.48550274    -0.80600
O2111       O  0.66485139  0.94548241  0.48123628    -0.80600
O2112       O  0.80950147  0.52652268  0.51888894    -0.80700
Co2113     Co  0.69481549  0.93802679  0.02885360     1.51500
Co2114     Co  0.74620636  0.53526385  0.02740652     1.51700
Co2115     Co  0.77285471  0.98787156  0.05430717     1.51600
Co2116     Co  0.67707841  0.98519126  0.01952390     1.51500
O2117       O  0.72568293  0.98688710  0.04328688    -1.42600
C2118       C  0.64568782  0.91050240  0.48528606     1.09000
C2119       C  0.80431173  0.53863354  0.49118493     1.09100
C2120       C  0.74857428  0.93780099  0.49023353     1.09000
C2121       C  0.72283158  0.56116109  0.48646598     1.09000
C2122       C  0.67764443  0.60724638  0.31794126    -0.06000
C2123       C  0.69602346  0.59334756  0.29861713     0.08200
C2124       C  0.71600073  0.58148707  0.31611642    -0.03300
C2125       C  0.71828217  0.58414564  0.35308715    -0.01600
C2126       C  0.69990433  0.59831582  0.37306963    -0.05200
C2127       C  0.67901293  0.60926972  0.35492660     0.01800
C2128       C  0.69519231  0.59236705  0.25948906     0.08600
C2129       C  0.73466420  0.56694712  0.29581057     0.34500
C2130       C  0.65798120  0.62195404  0.37380106     0.38000
C2131       C  0.72508891  0.61969702  0.24002181    -0.05600
C2132       C  0.72373506  0.61994391  0.20316888     0.01600
C2133       C  0.69277313  0.59244348  0.18568247    -0.05200
C2134       C  0.66308717  0.56479160  0.20504816    -0.01400
C2135       C  0.66408218  0.56504064  0.24200530    -0.04000
C2136       C  0.75719066  0.64747280  0.25799955     0.35300
C2137       C  0.63118163  0.53666839  0.18699534     0.38900
C2138       C  0.75446769  0.64789602  0.18297705     0.38000
C2139       C  0.63282490  0.53770109  0.26208225     0.35000
C2140       C  0.65758338  0.61990930  0.29943648     0.35600
C2141       C  0.74047054  0.57296276  0.36983484     0.38900
N2142       N  0.77843205  0.66983703  0.16609295    -0.39200
N2143       N  0.78284870  0.66935169  0.27248755    -0.40800
N2144       N  0.60577080  0.51423878  0.17255955    -0.38500
N2145       N  0.59250572  0.00468994  0.27432510    -0.40900
N2146       N  0.74960683  0.55549451  0.27957228    -0.40700
N2147       N  0.75806086  0.56373583  0.38285918    -0.38300
N2148       N  0.64124312  0.63227355  0.38856535    -0.39400
N2149       N  0.64172404  0.62993654  0.28440800    -0.41000
C2150       C  0.87531505  0.75749175  0.31597263    -0.06000
C2151       C  0.86549229  0.78042981  0.30073606     0.08200
C2152       C  0.85802007  0.80266554  0.32264744    -0.03300
C2153       C  0.85756011  0.79991861  0.35956362    -0.01600
C2154       C  0.86627593  0.77614284  0.37483758    -0.05200
C2155       C  0.87602473  0.75555546  0.35288385     0.01800
C2156       C  0.86196192  0.78019555  0.26161132     0.08600
C2157       C  0.85227848  0.82943853  0.30719825     0.34500
C2158       C  0.88579775  0.73154560  0.36813229     0.38000
C2159       C  0.82718539  0.76299355  0.24676238    -0.05600
C2160       C  0.82352528  0.76034046  0.20985021     0.01600
C2161       C  0.85479483  0.77389460  0.18726554    -0.05200
C2162       C  0.88972090  0.79276014  0.20246512    -0.01400
C2163       C  0.89317521  0.79586836  0.23937435    -0.04000
C2164       C  0.79497691  0.74685642  0.26963460     0.35300
C2165       C  0.92240068  0.81016023  0.18031180     0.38900
C2166       C  0.78728703  0.74300144  0.19566549     0.38000
C2167       C  0.92896034  0.81482509  0.25468713     0.35000
C2168       C  0.88523644  0.73629764  0.29351421     0.35600
C2169       C  0.84893844  0.82223300  0.38186519     0.38900
N2170       N  0.75822997  0.72943609  0.18475619    -0.39200
N2171       N  0.76933852  0.73378040  0.28790470    -0.40800
N2172       N  0.94852178  0.82410821  0.16272681    -0.38500
N2173       N  0.95736869  0.82961137  0.26715446    -0.40900
N2174       N  0.84836908  0.85135940  0.29511609    -0.40700
N2175       N  0.84198585  0.83990938  0.39974241    -0.38300
N2176       N  0.89375223  0.71249397  0.38020150    -0.39400
N2177       N  0.89381812  0.72011962  0.27531018    -0.41000
C2178       C  0.89962487  0.62335824  0.32213260    -0.06000
C2179       C  0.87224426  0.59395594  0.30296006     0.08200
C2180       C  0.84490941  0.56304767  0.32068553    -0.03300
C2181       C  0.84373408  0.56195201  0.35782921    -0.01600
C2182       C  0.87065440  0.59210542  0.37797397    -0.05200
C2183       C  0.89959707  0.62229072  0.35915260     0.01800
C2184       C  0.86924727  0.59804799  0.26458910     0.08600
C2185       C  0.81681640  0.53299287  0.30038587     0.34500
C2186       C  0.92965681  0.65314852  0.37688324     0.38000
C2187       C  0.87974809  0.58096805  0.23890601    -0.05600
C2188       C  0.87664635  0.58559845  0.20289241     0.01600
C2189       C  0.86502438  0.60887706  0.19261310    -0.05200
C2190       C  0.85596365  0.62704763  0.21835040    -0.01400
C2191       C  0.85624107  0.62009482  0.25418031    -0.04000
C2192       C  0.89354230  0.55861343  0.24942882     0.35300
C2193       C  0.84702153  0.65338095  0.20818577     0.39200
C2194       C  0.88606100  0.56704826  0.17632123     0.38000
C2195       C  0.84218057  0.63461616  0.28066135     0.35000
C2196       C  0.92705072  0.65577020  0.30356247     0.35600
C2197       C  0.81400738  0.52958264  0.37439205     0.38900
N2198       N  0.89362808  0.55243746  0.15496816    -0.39200
N2199       N  0.90475614  0.54082358  0.25747731    -0.40800
N2200       N  0.84086544  0.67524937  0.20057183    -0.38500
N2201       N  0.83084425  0.64538311  0.30248041    -0.40900
N2202       N  0.79465918  0.50928905  0.28381930    -0.40700
N2203       N  0.78989717  0.50367020  0.38706619    -0.38300
N2204       N  0.95395865  0.67797196  0.39040729    -0.39400
N2205       N  0.94872503  0.68158949  0.28874184    -0.41000
C2206       C  0.59681222  0.70251178  0.24712146    -0.06000
C2207       C  0.56343865  0.68309297  0.26575295     0.08200
C2208       C  0.53084649  0.66455837  0.24703444    -0.03300
C2209       C  0.53133620  0.66776610  0.21000816    -0.01600
C2210       C  0.56471468  0.69002577  0.19125485    -0.05200
C2211       C  0.59760669  0.70727626  0.21044913     0.01800
C2212       C  0.56291863  0.68461047  0.30527767     0.08600
C2213       C  0.49707072  0.64081219  0.26599743     0.34500
C2214       C  0.63254484  0.73160702  0.19334691     0.38000
C2215       C  0.56525452  0.71494304  0.32272929    -0.05600
C2216       C  0.56850412  0.71868793  0.35964118     0.01600
C2217       C  0.56874722  0.69170448  0.37960366    -0.05200
C2218       C  0.56441797  0.66039502  0.36225941    -0.01400
C2219       C  0.56189573  0.65705532  0.32519510    -0.04000
C2220       C  0.56445816  0.74244470  0.30251117     0.35300
C2221       C  0.56106969  0.63093998  0.38266976     0.38900
C2222       C  0.57292789  0.75103847  0.37685680     0.38000
C2223       C  0.55824474  0.62530796  0.30743359     0.35000
C2224       C  0.63048463  0.71653159  0.26578274     0.35600
C2225       C  0.49741818  0.64739521  0.19145614     0.38900
N2226       N  0.57665120  0.77687197  0.39070355    -0.39200
N2227       N  0.56366707  0.76423326  0.28628937    -0.40800
N2228       N  0.55793208  0.60724063  0.39900427    -0.38500
N2229       N  0.55515055  0.59992963  0.29314739    -0.40900
N2230       N  0.97056709  0.62126572  0.28152460    -0.40700
N2231       N  0.97029718  0.63121492  0.17670481    -0.38300
N2232       N  0.66053671  0.75116961  0.18002904    -0.39400
N2233       N  0.65721952  0.72694531  0.28062955    -0.41000
C2234       C  0.55778942  0.89192141  0.24163857    -0.06000
C2235       C  0.57705106  0.88051878  0.26122268     0.08200
C2236       C  0.59798646  0.86829764  0.24375695    -0.03300
C2237       C  0.59923709  0.86682114  0.20679338    -0.01600
C2238       C  0.57982160  0.87802324  0.18717996    -0.05200
C2239       C  0.55902051  0.89048608  0.20456039     0.01800
C2240       C  0.57422892  0.87948726  0.30041508     0.08600
C2241       C  0.61806268  0.85714899  0.26416485     0.34500
C2242       C  0.53846152  0.90121117  0.18426413     0.38000
C2243       C  0.54975564  0.84652984  0.31717102    -0.05600
C2244       C  0.55049362  0.84359229  0.35388945     0.01600
C2245       C  0.57552063  0.87425331  0.37455618    -0.05200
C2246       C  0.59838137  0.90804069  0.35744895    -0.01400
C2247       C  0.59818867  0.91027059  0.32050097    -0.04000
C2248       C  0.52441092  0.81515671  0.29622801     0.35300
C2249       C  0.62153748  0.94099868  0.37748194     0.38900
C2250       C  0.52585536  0.80832716  0.36948595     0.38000
C2251       C  0.62337454  0.94402183  0.30277267     0.35000
C2252       C  0.53665346  0.90489176  0.25968620     0.35600
C2253       C  0.61983277  0.85304410  0.18895929     0.38900
N2254       N  0.00586882  0.78010709  0.38151856    -0.39200
N2255       N  0.00421254  0.79016309  0.27959150    -0.40800
N2256       N  0.63998139  0.96748917  0.39319362    -0.38500
N2257       N  0.64344827  0.97070265  0.28826806    -0.40900
N2258       N  0.63385170  0.84851009  0.28115184    -0.40700
N2259       N  0.63609917  0.84186514  0.17477663    -0.38300
N2260       N  0.52195550  0.90961835  0.16802270    -0.39400
N2261       N  0.51981845  0.91529144  0.27410568    -0.41000
C2262       C  0.75355852  0.84998207  0.24671734    -0.06000
C2263       C  0.74397248  0.87171820  0.26640263     0.08200
C2264       C  0.73285049  0.89250493  0.24934430    -0.03300
C2265       C  0.73069284  0.89124520  0.21239966    -0.01600
C2266       C  0.74089079  0.86974616  0.19187802    -0.05200
C2267       C  0.75334571  0.84986930  0.20969222     0.01800
C2268       C  0.74483780  0.87221115  0.30548251     0.08600
C2269       C  0.72284255  0.91470580  0.27015050     0.34500
C2270       C  0.76722446  0.83001541  0.19058062     0.38000
C2271       C  0.77634956  0.89859646  0.32305434    -0.05600
C2272       C  0.77665645  0.89958735  0.36010145     0.01600
C2273       C  0.74519523  0.87461675  0.37951814    -0.05200
C2274       C  0.71402480  0.84756660  0.36177751    -0.01400
C2275       C  0.71393673  0.84635984  0.32483268    -0.04000
C2276       C  0.80846330  0.92440641  0.30290545     0.35300
C2277       C  0.68194207  0.82100746  0.38153384     0.38900
C2278       C  0.80988305  0.92479730  0.37817826     0.38000
C2279       C  0.68206949  0.81851589  0.30663034     0.35000
C2280       C  0.76258854  0.82677982  0.26482968     0.35600
C2281       C  0.71724212  0.91188211  0.19639156     0.38900
N2282       N  0.83653096  0.94454325  0.39261085    -0.39200
N2283       N  0.83405359  0.94491812  0.28673382    -0.40800
N2284       N  0.65677810  0.79973931  0.39767745    -0.38500
N2285       N  0.65663533  0.79632679  0.29209322    -0.40900
N2286       N  0.71482237  0.93231473  0.28676830    -0.40700
N2287       N  0.70655946  0.92856002  0.18403571    -0.38300
N2288       N  0.77847687  0.81423782  0.17558263    -0.39400
N2289       N  0.76902660  0.80776372  0.27936251    -0.41000
C2290       C  0.73782556  0.86742195  0.65249082     0.79700
N2291       N  0.73611728  0.89324774  0.63453102    -0.78600
C2292       C  0.73134702  0.89017619  0.59929307     0.82200
N2293       N  0.73031436  0.86235651  0.58146858    -0.78500
C2294       C  0.73329430  0.83722114  0.59863578     0.82300
N2295       N  0.73587892  0.83900347  0.63412391    -0.80200
C2296       C  0.74458100  0.87614597  0.91831840     0.79700
N2297       N  0.73495322  0.84572907  0.93658678    -0.78600
C2298       C  0.72987800  0.84499694  0.97187586     0.82200
N2299       N  0.73568389  0.87550451  0.98917312    -0.78500
C2300       C  0.74649272  0.90661579  0.97118824     0.82300
N2301       N  0.74990320  0.90648898  0.93556535    -0.80200
C2302       C  0.57808416  0.87064961  0.91338892     0.79700
N2303       N  0.61004689  0.89224403  0.93050192    -0.78600
C2304       C  0.61241045  0.88722428  0.96526271     0.82200
N2305       N  0.58277587  0.86080288  0.98282836    -0.78500
C2306       C  0.55087721  0.83962845  0.96631305     0.82300
N2307       N  0.54865570  0.84450303  0.93176256    -0.80200
C2308       C  0.58108184  0.87622893  0.64850376     0.79700
N2309       N  0.55669179  0.84512915  0.63146854    -0.78600
C2310       C  0.55968972  0.84245130  0.59604596     0.82200
N2311       N  0.58611198  0.87103687  0.57781081    -0.78500
C2312       C  0.60987297  0.90228819  0.59449262     0.82300
N2313       N  0.60821602  0.90464667  0.63008422    -0.80200
C2314       C  0.56569738  0.69490069  0.65198287     0.79700
N2315       N  0.53835669  0.69552797  0.63548914    -0.78600
C2316       C  0.54125611  0.70206746  0.60026132     0.82200
N2317       N  0.57148725  0.70905486  0.58194570    -0.78500
C2318       C  0.59829979  0.70799469  0.59770963     0.82300
N2319       N  0.59508534  0.70021246  0.63244266    -0.80200
C2320       C  0.57412089  0.69663208  0.91835587     0.79700
N2321       N  0.60249815  0.69638969  0.93286479    -0.78600
C2322       C  0.60860783  0.70298109  0.96790023     0.82200
N2323       N  0.58675702  0.71055787  0.98804731    -0.78500
C2324       C  0.55844390  0.71084149  0.97401018     0.82300
N2325       N  0.55226000  0.70395933  0.93905008    -0.80200
C2326       C  0.86823100  0.59258160  0.91788370     0.79700
N2327       N  0.83853011  0.56605989  0.93578796    -0.78600
C2328       C  0.83678488  0.56632264  0.97149077     0.82200
N2329       N  0.86473069  0.59393969  0.98972465    -0.78500
C2330       C  0.89396677  0.62135799  0.97240767     0.82300
N2331       N  0.89516940  0.62046942  0.93673647    -0.80200
C2332       C  0.85979514  0.61227073  0.65510920     0.79700
N2333       N  0.88353724  0.64330335  0.63734693    -0.78600
C2334       C  0.87714069  0.64619916  0.60321606     0.82200
N2335       N  0.84806802  0.61856379  0.58746579    -0.78500
C2336       C  0.82560548  0.58737267  0.60407167     0.82300
N2337       N  0.83137617  0.58375021  0.63815340    -0.80200
C2338       C  0.85122833  0.76761348  0.64821976     0.79700
N2339       N  0.87404593  0.75992601  0.62967950    -0.78600
C2340       C  0.87024565  0.75310716  0.59442771     0.82200
N2341       N  0.84404482  0.75460139  0.57773393    -0.78500
C2342       C  0.82168390  0.76280815  0.59558759     0.82300
N2343       N  0.82479215  0.76876426  0.63086354    -0.80200
C2344       C  0.86510036  0.77279885  0.91366196     0.79700
N2345       N  0.83374462  0.76286660  0.93221056    -0.78600
C2346       C  0.83195390  0.75774151  0.96746494     0.82200
N2347       N  0.86186703  0.76356280  0.98415071    -0.78500
C2348       C  0.89351965  0.77440154  0.96606094     0.82300
N2349       N  0.89470930  0.77786926  0.93060329    -0.80200
C2350       C  0.70275760  0.60200796  0.91238428     0.79700
N2351       N  0.69968627  0.62831337  0.92971756    -0.78600
C2352       C  0.70172994  0.63151299  0.96524522     0.82200
N2353       N  0.70919752  0.60956122  0.98345299    -0.78500
C2354       C  0.71318734  0.58369173  0.96647987     0.82300
N2355       N  0.70899301  0.57951760  0.93117970    -0.80200
C2356       C  0.69212661  0.59217442  0.64703756     0.79700
N2357       N  0.69091876  0.56432560  0.62854757    -0.78600
C2358       C  0.69290004  0.56536243  0.59296314     0.82200
N2359       N  0.69838090  0.59492400  0.57607312    -0.78500
C2360       C  0.70024679  0.62292058  0.59435295     0.82300
N2361       N  0.69660532  0.62146102  0.62990163    -0.80200
O2362       O  0.69031698  0.79847239  0.01208691    -0.80600
O2363       O  0.72128803  0.69228331  0.98201309    -0.80600
O2364       O  0.77764795  0.75805283  0.98343852    -0.80700
O2365       O  0.63153368  0.68134029  0.00964836    -0.80600
O2366       O  0.78815593  0.71960855  0.01034781    -0.80700
O2367       O  0.67086346  0.73172959  0.98268049    -0.80600
O2368       O  0.67334897  0.64873324  0.00933705    -0.80600
O2369       O  0.73395209  0.79335488  0.98548690    -0.80700
C2370       C  0.71773689  0.81119726  0.99102832     1.09100
C2371       C  0.69706407  0.65904212  0.98450814     1.08900
C2372       C  0.79784444  0.74455856  0.98787114     1.09100
C2373       C  0.63920158  0.70378828  0.98509416     1.09000
O2374       O  0.63985508  0.73402359  0.54972237    -0.80600
O2375       O  0.76309471  0.72930277  0.57515500    -0.80700
O2376       O  0.75659920  0.81417889  0.55622743    -0.80600
O2377       O  0.68546822  0.66636864  0.58349726    -0.80600
O2378       O  0.72625105  0.66555921  0.54852363    -0.80700
O2379       O  0.70212892  0.77858898  0.57572236    -0.80600
O2380       O  0.64504731  0.69702661  0.58376378    -0.80600
O2381       O  0.79643503  0.78258622  0.55439532    -0.80700
Co2382     Co  0.69010594  0.75698388  0.52853366     1.51500
Co2383     Co  0.74378576  0.71434173  0.52786477     1.51700
Co2384     Co  0.75941549  0.78000729  0.52186891     1.51600
Co2385     Co  0.66216659  0.67693409  0.54589306     1.51500
O2386       O  0.70920089  0.72755275  0.54032090    -1.42600
C2387       C  0.62958004  0.71378478  0.57648486     1.09000
C2388       C  0.79154923  0.75940866  0.57651944     1.09100
C2389       C  0.73153329  0.80785577  0.57791644     1.09000
C2390       C  0.70501176  0.65367896  0.57521847     1.09000
O2391       O  0.54368085  0.80139602  0.54822775    -0.80600
O2392       O  0.89176037  0.67461928  0.54927000    -0.80600
O2393       O  0.92835282  0.76246109  0.58369528    -0.80700
O2394       O  0.98651597  0.67388754  0.56851977    -0.80600
O2395       O  0.88784973  0.73308718  0.54281239    -0.80700
O2396       O  0.51955600  0.73412415  0.57103132    -0.80600
O2397       O  0.93671576  0.69294501  0.58653388    -0.80600
O2398       O  0.00090575  0.79306138  0.58541972    -0.80700
C2399       C  0.53395803  0.80990512  0.57667926     1.09100
C2400       C  0.90320586  0.67444831  0.57973937     1.08900
C2401       C  0.89628518  0.74791390  0.57331168     1.09100
C2402       C  0.51343189  0.70293392  0.58052283     1.09000
O2403       O  0.55574586  0.75544616  0.00866344    -0.80600
O2404       O  0.92803581  0.74864695  0.97524203    -0.80700
O2405       O  0.00792751  0.81893421  0.01306350    -0.80600
O2406       O  0.93105678  0.65462143  0.02184122    -0.80600
O2407       O  0.92720698  0.68521004  0.97987158    -0.80700
O2408       O  0.51284195  0.77810432  0.98095813    -0.80600
O2409       O  0.00353261  0.70311383  0.00259328    -0.80600
O2410       O  0.93376343  0.78991474  0.01347817    -0.80700
Co2411     Co  0.51260585  0.75350201  0.52385694     1.51500
Co2412     Co  0.91170847  0.71182879  0.51169670     1.51700
Co2413     Co  0.96768305  0.78845369  0.54856055     1.51600
Co2414     Co  0.96983792  0.70092499  0.54605985     1.51500
O2415       O  0.96148974  0.74051371  0.53222223    -1.42600
C2416       C  0.53834765  0.72357505  0.99598664     1.09000
C2417       C  0.92248972  0.77350511  0.98401274     1.09100
C2418       C  0.52034006  0.81038902  0.98601328     1.09000
C2419       C  0.92003241  0.65509633  0.99147830     1.09000
O2420       O  0.71152385  0.90816841  0.55132797    -0.80600
O2421       O  0.72770622  0.54278406  0.57220606    -0.80600
O2422       O  0.78524231  0.52508581  0.59074989    -0.80700
O2423       O  0.63748707  0.94713672  0.55066287    -0.80600
O2424       O  0.79193034  0.56581353  0.55304698    -0.80700
O2425       O  0.66928178  0.92901595  0.57422655    -0.80600
O2426       O  0.67514150  0.51963446  0.55005281    -0.80600
O2427       O  0.74555988  0.94980416  0.58994692    -0.80700
C2428       C  0.72866679  0.91712335  0.57984405     1.09100
C2429       C  0.69761554  0.53964508  0.57256185     1.08900
C2430       C  0.79877802  0.55780730  0.58244129     1.09100
C2431       C  0.64084836  0.92925673  0.57401555     1.09000
O2432       O  0.65443474  0.89606160  0.00853540    -0.80600
O2433       O  0.77281904  0.53218835  0.98484670    -0.80700
O2434       O  0.76843727  0.95092490  0.01716462    -0.80600
O2435       O  0.70651012  0.52612071  0.98147598    -0.80600
O2436       O  0.74809997  0.57655112  0.00866270    -0.80700
O2437       O  0.72409015  0.94461292  0.98549984    -0.80600
O2438       O  0.66484874  0.94546559  0.98122407    -0.80600
O2439       O  0.80951635  0.52649490  0.01887824    -0.80700
Co2440     Co  0.69482442  0.93804356  0.52885836     1.51500
Co2441     Co  0.74618886  0.53528626  0.52739968     1.51700
Co2442     Co  0.77286181  0.98790333  0.55431167     1.51600
Co2443     Co  0.67707209  0.98520321  0.51953829     1.51500
O2444       O  0.72568402  0.98690744  0.54329259    -1.42600
C2445       C  0.64568128  0.91048607  0.98527920     1.09000
C2446       C  0.80432400  0.53861294  0.99118054     1.09100
C2447       C  0.74855762  0.93776906  0.99023139     1.09000
C2448       C  0.72284864  0.56114083  0.98647049     1.09000
C2449       C  0.67751831  0.60711936  0.81796116    -0.06000
C2450       C  0.69588889  0.59321827  0.79862630     0.08200
C2451       C  0.71586891  0.58135411  0.81611432    -0.03300
C2452       C  0.71817621  0.58402753  0.85308324    -0.01600
C2453       C  0.69982126  0.59821634  0.87307574    -0.05200
C2454       C  0.67891523  0.60916114  0.85494503     0.01800
C2455       C  0.69506676  0.59226287  0.75949780     0.08600
C2456       C  0.73450951  0.56679634  0.79579789     0.34500
C2457       C  0.65790274  0.62186157  0.87383063     0.38000
C2458       C  0.72495659  0.61962331  0.74004884    -0.05600
C2459       C  0.72361153  0.61989940  0.70319703     0.01600
C2460       C  0.69266864  0.59239365  0.68569092    -0.05200
C2461       C  0.66298991  0.56471069  0.70503875    -0.01400
C2462       C  0.66397211  0.56493522  0.74199647    -0.04000
C2463       C  0.75704170  0.64740313  0.75804470     0.35300
C2464       C  0.63110554  0.53657781  0.68696759     0.38900
C2465       C  0.75433553  0.64788766  0.68302589     0.38000
C2466       C  0.63271740  0.53756940  0.76205636     0.35000
C2467       C  0.65743801  0.61976734  0.79946817     0.35600
C2468       C  0.74037195  0.57284595  0.86981751     0.38900
N2469       N  0.77829117  0.66985649  0.66615507    -0.39200
N2470       N  0.78268577  0.66928750  0.77254646    -0.40800
N2471       N  0.60571217  0.51413919  0.67251726    -0.38500
N2472       N  0.59249379  0.00462225  0.77429380    -0.40900
N2473       N  0.74943105  0.55532627  0.77955119    -0.40700
N2474       N  0.75796854  0.56362107  0.88283202    -0.38300
N2475       N  0.64118042  0.63219477  0.88860306    -0.39400
N2476       N  0.64156235  0.62978126  0.78444818    -0.41000
C2477       C  0.87534059  0.75751447  0.81597655    -0.06000
C2478       C  0.86553385  0.78046530  0.80074042     0.08200
C2479       C  0.85809399  0.80272417  0.82265237    -0.03300
C2480       C  0.85763340  0.79997658  0.85956895    -0.01600
C2481       C  0.86631846  0.77617753  0.87484179    -0.05200
C2482       C  0.87605026  0.75557735  0.85288766     0.01800
C2483       C  0.86200162  0.78023125  0.76161526     0.08600
C2484       C  0.85240437  0.82953222  0.80720444     0.34500
C2485       C  0.88581255  0.73155948  0.86813623     0.38000
C2486       C  0.82722553  0.76304199  0.74676709    -0.05600
C2487       C  0.82356455  0.76039728  0.70985470     0.01600
C2488       C  0.85483076  0.77392598  0.68726764    -0.05200
C2489       C  0.88975763  0.79276944  0.70246723    -0.01400
C2490       C  0.89321333  0.79588708  0.73937670    -0.04000
C2491       C  0.79501682  0.74690547  0.76963882     0.35300
C2492       C  0.92243884  0.81013477  0.68031476     0.38900
C2493       C  0.78732787  0.74309779  0.69567287     0.38000
C2494       C  0.92899824  0.81483234  0.75468985     0.35000
C2495       C  0.88525843  0.73631826  0.79351741     0.35600
C2496       C  0.84905096  0.82231867  0.88187306     0.38900
N2497       N  0.75827353  0.72956774  0.68476452    -0.39200
N2498       N  0.76937491  0.73382756  0.78790424    -0.40800
N2499       N  0.94856243  0.82405330  0.66273191    -0.38500
N2500       N  0.95740466  0.82960848  0.76716072    -0.40900
N2501       N  0.84854332  0.85148588  0.79512558    -0.40700
N2502       N  0.84213255  0.84001840  0.89975394    -0.38300
N2503       N  0.89376018  0.71250343  0.88020736    -0.39400
N2504       N  0.89384170  0.72014282  0.77531146    -0.41000
C2505       C  0.89957268  0.62343389  0.82213224    -0.06000
C2506       C  0.87219732  0.59403006  0.80295754     0.08200
C2507       C  0.84487120  0.56311322  0.82067849    -0.03300
C2508       C  0.84370400  0.56200571  0.85782112    -0.01600
C2509       C  0.87061891  0.59215920  0.87796997    -0.05200
C2510       C  0.89954442  0.62236239  0.85915227     0.01800
C2511       C  0.86920265  0.59812165  0.76458673     0.08600
C2512       C  0.81678519  0.53305547  0.80037540     0.34500
C2513       C  0.92958439  0.65323522  0.87688692     0.38000
C2514       C  0.87971561  0.58104889  0.73890762    -0.05600
C2515       C  0.87661658  0.58567646  0.70289367     0.01600
C2516       C  0.86497980  0.60894120  0.69261048    -0.05200
C2517       C  0.85590084  0.62710117  0.71834268    -0.01400
C2518       C  0.85618418  0.62015697  0.75417401    -0.04000
C2519       C  0.89351668  0.55870180  0.74943521     0.35300
C2520       C  0.84692948  0.65341081  0.70817030     0.39200
C2521       C  0.88604302  0.56713299  0.67632543     0.38000
C2522       C  0.84211874  0.63467549  0.78065255     0.35000
C2523       C  0.92700051  0.65584520  0.80356224     0.35600
C2524       C  0.81399421  0.52962056  0.87437872     0.38900
N2525       N  0.89361837  0.55252816  0.65497319    -0.39200
N2526       N  0.90473470  0.54091703  0.75748857    -0.40800
N2527       N  0.84074733  0.67525875  0.70054855    -0.38500
N2528       N  0.83078228  0.64544308  0.80247075    -0.40900
N2529       N  0.79463404  0.50934856  0.78380676    -0.40700
N2530       N  0.78989762  0.50369461  0.88704803    -0.38300
N2531       N  0.95387042  0.67807208  0.89041333    -0.39400
N2532       N  0.94867796  0.68166145  0.78873974    -0.41000
C2533       C  0.59679442  0.70247257  0.74711306    -0.06000
C2534       C  0.56341765  0.68307293  0.76574259     0.08200
C2535       C  0.53082473  0.66457493  0.74702307    -0.03300
C2536       C  0.53131867  0.66780094  0.70999917    -0.01600
C2537       C  0.56470469  0.69003283  0.69124623    -0.05200
C2538       C  0.59759654  0.70724505  0.71044120     0.01800
C2539       C  0.56289634  0.68458719  0.80526778     0.08600
C2540       C  0.49703929  0.64085189  0.76598245     0.34500
C2541       C  0.63254529  0.73154665  0.69334177     0.38000
C2542       C  0.56526353  0.71493345  0.82271994    -0.05600
C2543       C  0.56850548  0.71867117  0.85963299     0.01600
C2544       C  0.56871689  0.69167073  0.87959642    -0.05200
C2545       C  0.56436055  0.66035056  0.86225024    -0.01400
C2546       C  0.56184087  0.65701527  0.82518483    -0.04000
C2547       C  0.56451030  0.74245782  0.80249931     0.35300
C2548       C  0.56098431  0.63088197  0.88265865     0.38900
C2549       C  0.57295459  0.75103173  0.87684846     0.38000
C2550       C  0.55816174  0.62525685  0.80742101     0.35000
C2551       C  0.63046211  0.71647470  0.76577835     0.35600
C2552       C  0.49739301  0.64748582  0.69145117     0.38900
N2553       N  0.57669881  0.77687461  0.89069284    -0.39200
N2554       N  0.56375352  0.76426229  0.78627165    -0.40800
N2555       N  0.55782470  0.60717078  0.89898936    -0.38500
N2556       N  0.55504577  0.59987083  0.79313146    -0.40900
N2557       N  0.97052182  0.62132667  0.78152649    -0.40700
N2558       N  0.97026549  0.63126654  0.67670061    -0.38300
N2559       N  0.66054581  0.75108453  0.68002601    -0.39400
N2560       N  0.65719312  0.72687793  0.78062861    -0.41000
C2561       C  0.55776061  0.89190390  0.74164319    -0.06000
C2562       C  0.57700621  0.88048612  0.76123269     0.08200
C2563       C  0.59793150  0.86825007  0.74377218    -0.03300
C2564       C  0.59918225  0.86676750  0.70680872    -0.01600
C2565       C  0.57979482  0.87799839  0.68718897    -0.05200
C2566       C  0.55900302  0.89047524  0.70456460     0.01800
C2567       C  0.57418089  0.87945664  0.80042534     0.08600
C2568       C  0.61800385  0.85709991  0.76418562     0.34500
C2569       C  0.53845966  0.90121559  0.68426335     0.38000
C2570       C  0.54972479  0.84649415  0.81718269    -0.05600
C2571       C  0.55047460  0.84355780  0.85389973     0.01600
C2572       C  0.57549146  0.87422570  0.87456420    -0.05200
C2573       C  0.59833264  0.90801667  0.85745745    -0.01400
C2574       C  0.59813141  0.91024543  0.82051023    -0.04000
C2575       C  0.52438872  0.81511401  0.79624244     0.35300
C2576       C  0.62147968  0.94097765  0.87749045     0.38900
C2577       C  0.52586382  0.80828630  0.86949704     0.38000
C2578       C  0.62330411  0.94399979  0.80278115     0.35000
C2579       C  0.53662987  0.90488345  0.75968545     0.35600
C2580       C  0.61974364  0.85294834  0.68898180     0.38900
N2581       N  0.00593276  0.78005097  0.88153204    -0.39200
N2582       N  0.00423226  0.79009752  0.77960666    -0.40800
N2583       N  0.63991644  0.96747007  0.89320242    -0.38500
N2584       N  0.64336859  0.97068263  0.78827529    -0.40900
N2585       N  0.63379190  0.84846319  0.78117735    -0.40700
N2586       N  0.63597990  0.84173202  0.67480623    -0.38300
N2587       N  0.52196443  0.90963372  0.66801891    -0.39400
N2588       N  0.51979822  0.91528947  0.77410053    -0.41000
C2589       C  0.75367936  0.85008318  0.74670391    -0.06000
C2590       C  0.74404912  0.87178109  0.76639650     0.08200
C2591       C  0.73286741  0.89252317  0.74934762    -0.03300
C2592       C  0.73068587  0.89124860  0.71240536    -0.01600
C2593       C  0.74093121  0.86979189  0.69187828    -0.05200
C2594       C  0.75345146  0.84996672  0.70968026     0.01800
C2595       C  0.74489324  0.87224943  0.80547540     0.08600
C2596       C  0.72281587  0.91468554  0.77016136     0.34500
C2597       C  0.76737688  0.83016105  0.69055536     0.38000
C2598       C  0.77638884  0.89862931  0.82307113    -0.05600
C2599       C  0.77666896  0.89959460  0.86011848     0.01600
C2600       C  0.74519708  0.87460503  0.87951057    -0.05200
C2601       C  0.71404557  0.84755652  0.86174553    -0.01400
C2602       C  0.71398382  0.84637559  0.82480026    -0.04000
C2603       C  0.80851309  0.92446026  0.80294799     0.35300
C2604       C  0.68195737  0.82097153  0.88147657     0.38900
C2605       C  0.80988014  0.92479617  0.87822186     0.38000
C2606       C  0.68213668  0.81853557  0.80656874     0.35000
C2607       C  0.76275836  0.82691384  0.76480678     0.35600
C2608       C  0.71715117  0.91181447  0.69640394     0.38900
N2609       N  0.83651402  0.94453366  0.89267881    -0.39200
N2610       N  0.83411411  0.94498978  0.78679980    -0.40800
N2611       N  0.65678983  0.79968148  0.89760084    -0.38500
N2612       N  0.65672325  0.79635226  0.79200150    -0.40900
N2613       N  0.71476193  0.93226421  0.78678588    -0.40700
N2614       N  0.70640118  0.92843500  0.68405191    -0.38300
N2615       N  0.77866600  0.81442232  0.67554556    -0.39400
N2616       N  0.76923265  0.80792069  0.77933190    -0.41000
loop_ 
_geom_bond_atom_site_label_1 
_geom_bond_atom_site_label_2 
_geom_bond_distance 
_geom_bond_site_symmetry_2 
_ccdc_geom_bond_type 
C1            N2   1.362       .  A
C1            N6   1.366       .  A
C1          C304   1.504       .  S
N2            C3   1.356       .  A
C3            N4   1.346       .  A
C3          C139   1.454       .  S
N4            C5   1.348       .  A
C5            N6   1.358       .  A
C5          C100   1.449       .  S
C7            N8   1.362       .  A
C7           N12   1.364       .  A
C7          C311   1.487       .  S
N8            C9   1.356       .  A
C9           N10   1.358       .  A
C9           C81   1.473       .  S
N10          C11   1.361       .  A
C11          N12   1.356       .  A
C11         C158   1.470       .  S
C13          N14   1.366       .  A
C13          N18   1.363       .  A
C13         C283   1.496       .  S
N14          C15   1.357       .  A
C15          N16   1.355       .  A
C15         C156   1.470       .  S
N16          C17   1.356       .  A
C17          N18   1.354       .  A
C17         C129   1.463       .  S
C19          N20   1.360       .  A
C19          N24   1.361       .  A
C19         C276   1.471       .  S
N20          C21   1.356       .  A
C21          N22   1.349       .  A
C21         C110   1.454       .  S
N22          C23   1.350       .  A
C23          N24   1.356       .  A
C23         C142   1.448       .  S
C25          N26   1.366       .  A
C25          N30   1.362       .  A
C25         C248   1.516       .  S
N26          C27   1.359       .  A
C27          N28   1.347       .  A
C27         C113   1.448       .  S
N28          C29   1.344       .  A
C29          N30   1.355       .  A
C29          C98   1.452       .  S
C31          N32   1.366       .  A
C31          N36   1.362       .  A
C31         C255   1.477       .  S
N32          C33   1.359       .  A
C33          N34   1.360       .  A
C33          C84   1.475       .  S
N34          C35   1.357       .  A
C35          N36   1.355       .  A
C35         C127   1.471       .  S
C37          N38   1.363       .  A
C37          N42   1.357       .  A
C37         C220   1.492       .  S
N38          C39   1.357       .  A
C39          N40   1.369       .  A
C39         C157   1.480       .  S
N40          C41   1.364       .  A
C41          N42   1.352       .  A
C41         C130   1.479       .  S
C43          N44   1.366       .  A
C43          N48   1.365       .  A
C43         C227   1.475       .  S
N44          C45   1.358       .  A
C45          N46   1.343       .  A
C45         C111   1.453       .  S
N46          C47   1.340       .  A
C47          N48   1.355       .  A
C47         C141   1.452       .  S
C49          N50   1.367       .  A
C49          N54   1.365       .  A
C49         C199   1.508       .  S
N50          C51   1.361       .  A
C51          N52   1.347       .  A
C51         C112   1.466       .  S
N52          C53   1.350       .  A
C53          N54   1.357       .  A
C53          C99   1.449       .  S
C55          N56   1.361       .  A
C55          N60   1.362       .  A
C55         C192   1.478       .  S
N56          C57   1.358       .  A
C57          N58   1.357       .  A
C57          C83   1.468       .  S
N58          C59   1.357       .  A
C59          N60   1.358       .  A
C59         C128   1.467       .  S
C61          N62   1.368       .  A
C61          N66   1.365       .  A
C61         C164   1.507       .  S
N62          C63   1.358       .  A
C63          N64   1.362       .  A
C63          C82   1.480       .  S
N64          C65   1.360       .  A
C65          N66   1.357       .  A
C65         C159   1.482       .  S
C67          N68   1.362       .  A
C67          N72   1.362       .  A
C67         C171   1.484       .  S
N68          C69   1.357       .  A
C69          N70   1.349       .  A
C69         C140   1.445       .  S
N70          C71   1.347       .  A
C71          N72   1.357       .  A
C71         C101   1.454       .  S
O73          C81   1.273       .  A
O73        Co420   1.908       .  S
O74          C82   1.260       .  A
O74        Co421   1.986       .  S
O75          C83   1.297       .  A
O75        Co422   2.070       .  S
O76          C84   1.269       .  A
O76        Co423   2.016       .  S
O77          C83   1.273       .  A
O77        Co421   1.906       .  S
O78          C84   1.264       .  A
O78        Co420   1.991       .  S
O79          C82   1.272       .  A
O79        Co423   2.034       .  S
O80          C81   1.298       .  A
O80        Co422   2.075       .  S
O85          C98   1.268       .  A
O85         Co93   2.001       .  S
O86          C99   1.237       .  A
O86         Co94   1.953       .  S
O87         C100   1.253       .  A
O87         Co95   2.001       .  S
O88         C101   1.256       .  A
O88         Co96   1.970       .  S
O89         C101   1.269       .  A
O89         Co94   2.012       .  S
O90         C100   1.238       .  A
O90         Co93   1.957       .  S
O91          C98   1.259       .  A
O91         Co96   1.976       .  S
O92          C99   1.253       .  A
O92         Co95   2.008       .  S
Co93        O400   1.908       .  S
Co93        O405   1.991   1_554  S
Co93         O97   1.915       .  S
Co94        O401   1.986   1_554  S
Co94        O404   1.906       .  S
Co94         O97   1.908       .  S
Co95        O402   2.070   1_554  S
Co95        O407   2.075   1_554  S
Co95         O97   2.263       .  S
Co96        O403   2.016       .  S
Co96        O406   2.034       .  S
Co96         O97   2.067       .  S
O102        C110   1.261       .  A
O102       Co122   2.000       .  S
O103        C111   1.276       .  A
O103       Co123   1.994       .  S
O104        C112   1.256       .  A
O104       Co124   1.960       .  S
O105       C1421   1.268       .  A
O105       Co125   1.894       .  S
O106        C112   1.278       .  A
O106       Co123   2.040       .  S
O107        C113   1.291       .  A
O107       Co122   2.089       .  S
O108        C111   1.266       .  A
O108       Co125   1.976       .  S
O109       C1418   1.251       .  A
O109       Co124   1.972       .  S
C110       O1417   1.251       .  A
C113       O1413   1.268   1_455  A
O114        C127   1.262       .  A
O114       Co449   1.886       .  S
O115        C128   1.254       .  A
O115       Co450   1.959       .  S
O116       C1437   1.279       .  A
O116       Co451   2.033       .  S
O117        C130   1.266       .  A
O117       Co452   2.036       .  S
O118        C130   1.258       .  A
O118       Co450   1.974       .  S
O119        C129   1.267       .  A
O119       Co449   1.970       .  S
O120       C1435   1.302       .  A
O120       Co452   2.133       .  S
O121        C128   1.275       .  A
O121       Co451   2.043       .  S
Co122       O441   1.886       .  S
Co122       O446   1.970   1_554  S
Co122      O1434   1.983   1_455  S
Co123       O442   1.959   1_554  S
Co123       O445   1.974   1_554  S
Co123       O126   2.002       .  S
Co124       O443   2.033       .  S
Co124       O448   2.043       .  S
Co124       O126   2.034       .  S
Co125       O444   2.036       .  S
Co125       O447   2.133       .  S
Co125       O126   2.023       .  S
O126      Co1430   1.983       .  S
C127       O1428   1.302       .  A
C129       O1424   1.279       .  A
O131        C139   1.268       .  A
O131       Co151   2.008       .  S
O132        C140   1.235       .  A
O132       Co152   1.955       .  S
O133        C141   1.262       .  A
O133       Co807   1.990   1_545  S
O134        C142   1.255       .  A
O134       Co154   2.011       .  S
O135        C141   1.266       .  A
O135       Co152   1.977       .  S
O136        C142   1.236       .  A
O136       Co151   1.949       .  S
O137        C140   1.251       .  A
O137       Co808   2.001   1_545  S
O138        C139   1.256       .  A
O138       Co153   1.970       .  S
O143        C156   1.271       .  A
O143       Co478   1.902       .  S
O144        C157   1.270       .  A
O144       Co479   1.998       .  S
O145        C158   1.274       .  A
O145       Co480   2.037       .  S
O146        C159   1.302       .  A
O146      Co1135   2.083   1_545  S
O147        C159   1.272       .  A
O147       Co479   1.910       .  S
O148        C158   1.258       .  A
O148       Co478   1.976       .  S
O149        C156   1.299       .  A
O149       Co481   2.074       .  S
O150        C157   1.268       .  A
O150      Co1134   2.013   1_545  S
Co151       O470   1.902       .  S
Co151       O475   1.976   1_554  S
Co151       O155   1.893       .  S
Co152       O471   1.998   1_554  S
Co152       O474   1.910       .  S
Co152       O809   1.892   1_545  S
Co153       O787   1.986       .  S
Co153       O472   2.036       .  S
Co153      O1131   2.006       .  S
Co153       O155   2.073       .  S
Co154       O791   1.990       .  S
Co154      O1127   2.092   1_554  S
Co154       O476   2.074   1_554  S
Co154       O155   2.276       .  S
O155       Co806   1.893       .  S
C160        C161   1.405       .  A
C160        C165   1.412       .  A
C160        C178   1.451       .  S
C161        C166   1.495       .  S
C161        C162   1.406       .  A
C162        C163   1.412       .  A
C162        C167   1.452       .  S
C163        C164   1.427       .  A
C163        C179   1.452       .  S
C164        C165   1.425       .  A
C165        C168   1.451       .  S
C166        C169   1.411       .  A
C166        C173   1.411       .  A
C167        N184   1.158       .  T
C168        N186   1.158       .  T
C169        C170   1.408       .  A
C169        C174   1.451       .  S
C170        C171   1.414       .  A
C170        C176   1.451       .  S
C171        C172   1.414       .  A
C172        C173   1.412       .  A
C172        C175   1.451       .  S
C173        C177   1.449       .  S
C174        N181   1.157       .  T
C175        N182   1.157       .  T
C176        N180   1.157       .  T
C177        N837   1.157       .  T
C178        N187   1.157       .  T
C179        N185   1.158       .  T
N183        C831   1.157       .  T
C188        C189   1.410       .  A
C188        C193   1.408       .  A
C188        C206   1.449       .  S
C189        C194   1.497       .  S
C189        C190   1.411       .  A
C190        C191   1.412       .  A
C190        C195   1.449       .  S
C191        C192   1.411       .  A
C191        C207   1.450       .  S
C192        C193   1.411       .  A
C193        C196   1.450       .  S
C194        C197   1.408       .  A
C194        C201   1.407       .  A
C195        N212   1.157       .  T
C196        N214   1.157       .  T
C197        C198   1.412       .  A
C197        C202   1.453       .  S
C198        C199   1.426       .  A
C198        C204   1.451       .  S
C199        C200   1.425       .  A
C200        C201   1.413       .  A
C200        C203   1.452       .  S
C201        C205   1.451       .  S
C202        N209   1.157       .  T
C203        N210   1.158       .  T
C204        N208   1.158       .  T
C205        N211   1.157       .  T
C206        N215   1.156       .  T
C207        N213   1.157       .  T
C216        C217   1.407       .  A
C216        C221   1.407       .  A
C216        C234   1.452       .  S
C217        C222   1.488       .  S
C217        C218   1.408       .  A
C218        C219   1.409       .  A
C218        C223   1.452       .  S
C219        C220   1.418       .  A
C219        C235   1.450       .  S
C220        C221   1.422       .  A
C221        C224   1.452       .  S
C222        C225   1.411       .  A
C222        C229   1.408       .  A
C223        N240   1.157       .  T
C224        N242   1.158       .  T
C225        C226   1.410       .  A
C225        C230   1.450       .  S
C226        C227   1.411       .  A
C226        C232   1.450       .  S
C227        C228   1.411       .  A
C228        C229   1.404       .  A
C228        C231   1.448       .  S
C229        C233   1.451       .  S
C230        N237   1.157       .  T
C231        N238   1.155       .  T
C232        N236   1.157       .  T
C233        N239   1.157       .  T
C234        N243   1.157       .  T
C235        N241   1.157       .  T
C244        C245   1.405       .  A
C244        C249   1.411       .  A
C244        C262   1.453       .  S
C245        C250   1.498       .  S
C245        C246   1.407       .  A
C246        C247   1.413       .  A
C246        C251   1.451       .  S
C247        C248   1.429       .  A
C247        C263   1.452       .  S
C248        C249   1.431       .  A
C249        C252   1.453       .  S
C250        C253   1.411       .  A
C250        C257   1.412       .  A
C251       N1576   1.157   1_455  T
C252        N270   1.158       .  T
C253        C254   1.408       .  A
C253        C258   1.446       .  S
C254        C255   1.411       .  A
C254        C260   1.452       .  S
C255        C256   1.411       .  A
C256        C257   1.411       .  A
C256        C259   1.450       .  S
C257        C261   1.450       .  S
C258        N265   1.155       .  T
C259        N266   1.157       .  T
C260        N264   1.158       .  T
C261        N267   1.157       .  T
C262        N271   1.157       .  T
C263       N1577   1.158   1_455  T
N268       C1559   1.157       .  T
N269       C1571   1.158       .  T
C272        C273   1.411       .  A
C272        C277   1.410       .  A
C272        C290   1.450       .  S
C273        C278   1.490       .  S
C273        C274   1.410       .  A
C274        C275   1.406       .  A
C274        C279   1.449       .  S
C275        C276   1.409       .  A
C275        C291   1.452       .  S
C276        C277   1.410       .  A
C277        C280   1.450       .  S
C278        C281   1.408       .  A
C278        C285   1.406       .  A
C279        N296   1.157       .  T
C280        N298   1.157       .  T
C281        C282   1.409       .  A
C281        C286   1.453       .  S
C282        C283   1.423       .  A
C282        C288   1.452       .  S
C283        C284   1.421       .  A
C284        C285   1.409       .  A
C284        C287   1.452       .  S
C285        C289   1.451       .  S
C286       N1601   1.157       .  T
C287        N294   1.158       .  T
C288       N1600   1.158       .  T
C289        N295   1.157       .  T
C290        N299   1.157       .  T
C291        N297   1.157       .  T
N292       C1596   1.158       .  T
N293       C1594   1.157       .  T
C300        C301   1.406       .  A
C300        C305   1.410       .  A
C300        C318   1.451       .  S
C301        C306   1.491       .  S
C301        C302   1.405       .  A
C302        C303   1.410       .  A
C302        C307   1.453       .  S
C303        C304   1.428       .  A
C303        C319   1.452       .  S
C304        C305   1.424       .  A
C305        C308   1.452       .  S
C306        C309   1.409       .  A
C306        C313   1.409       .  A
C307        N324   1.158       .  T
C308        N326   1.158       .  T
C309        C310   1.410       .  A
C309        C314   1.450       .  S
C310        C311   1.417       .  A
C310        C316   1.451       .  S
C311        C312   1.418       .  A
C312        C313   1.407       .  A
C312        C315   1.451       .  S
C313        C317   1.453       .  S
C314        N321   1.157       .  T
C315        N322   1.157       .  T
C316        N320   1.157       .  T
C317        N323   1.157       .  T
C318        N327   1.157       .  T
C319        N325   1.158       .  T
C328        N329   1.362       .  A
C328        N333   1.366       .  A
C328        C631   1.504       .  S
N329        C330   1.356       .  A
C330        N331   1.346       .  A
C330        C466   1.454       .  S
N331        C332   1.348       .  A
C332        N333   1.358       .  A
C332        C427   1.449       .  S
C334        N335   1.362       .  A
C334        N339   1.364       .  A
C334        C638   1.487       .  S
N335        C336   1.356       .  A
C336        N337   1.358       .  A
C336        C408   1.473       .  S
N337        C338   1.361       .  A
C338        N339   1.356       .  A
C338        C485   1.470       .  S
C340        N341   1.366       .  A
C340        N345   1.363       .  A
C340        C610   1.496       .  S
N341        C342   1.357       .  A
C342        N343   1.355       .  A
C342        C483   1.470       .  S
N343        C344   1.356       .  A
C344        N345   1.354       .  A
C344        C456   1.463       .  S
C346        N347   1.360       .  A
C346        N351   1.361       .  A
C346        C603   1.471       .  S
N347        C348   1.356       .  A
C348        N349   1.349       .  A
C348        C437   1.454       .  S
N349        C350   1.350       .  A
C350        N351   1.356       .  A
C350        C469   1.448       .  S
C352        N353   1.366       .  A
C352        N357   1.362       .  A
C352        C575   1.516       .  S
N353        C354   1.359       .  A
C354        N355   1.347       .  A
C354        C440   1.448       .  S
N355        C356   1.344       .  A
C356        N357   1.355       .  A
C356        C425   1.452       .  S
C358        N359   1.366       .  A
C358        N363   1.362       .  A
C358        C582   1.477       .  S
N359        C360   1.359       .  A
C360        N361   1.360       .  A
C360        C411   1.475       .  S
N361        C362   1.357       .  A
C362        N363   1.355       .  A
C362        C454   1.471       .  S
C364        N365   1.363       .  A
C364        N369   1.357       .  A
C364        C547   1.492       .  S
N365        C366   1.357       .  A
C366        N367   1.369       .  A
C366        C484   1.480       .  S
N367        C368   1.364       .  A
C368        N369   1.352       .  A
C368        C457   1.479       .  S
C370        N371   1.366       .  A
C370        N375   1.365       .  A
C370        C554   1.475       .  S
N371        C372   1.358       .  A
C372        N373   1.343       .  A
C372        C438   1.453       .  S
N373        C374   1.340       .  A
C374        N375   1.355       .  A
C374        C468   1.452       .  S
C376        N377   1.367       .  A
C376        N381   1.365       .  A
C376        C526   1.509       .  S
N377        C378   1.361       .  A
C378        N379   1.347       .  A
C378        C439   1.466       .  S
N379        C380   1.350       .  A
C380        N381   1.358       .  A
C380        C426   1.449       .  S
C382        N383   1.361       .  A
C382        N387   1.362       .  A
C382        C519   1.478       .  S
N383        C384   1.358       .  A
C384        N385   1.357       .  A
C384        C410   1.468       .  S
N385        C386   1.358       .  A
C386        N387   1.358       .  A
C386        C455   1.467       .  S
C388        N389   1.368       .  A
C388        N393   1.365       .  A
C388        C491   1.507       .  S
N389        C390   1.358       .  A
C390        N391   1.362       .  A
C390        C409   1.479       .  S
N391        C392   1.360       .  A
C392        N393   1.357       .  A
C392        C486   1.482       .  S
C394        N395   1.362       .  A
C394        N399   1.362       .  A
C394        C498   1.484       .  S
N395        C396   1.357       .  A
C396        N397   1.349       .  A
C396        C467   1.445       .  S
N397        C398   1.347       .  A
C398        N399   1.357       .  A
C398        C428   1.454       .  S
O400        C408   1.273   1_554  A
O401        C409   1.260       .  A
O402        C410   1.297       .  A
O403        C411   1.269   1_554  A
O404        C410   1.273   1_554  A
O405        C411   1.264       .  A
O406        C409   1.272   1_554  A
O407        C408   1.298       .  A
O412        C425   1.268       .  A
O412       Co420   2.001       .  S
O413        C426   1.237       .  A
O413       Co421   1.953       .  S
O414        C427   1.253       .  A
O414       Co422   2.001       .  S
O415        C428   1.256       .  A
O415       Co423   1.970       .  S
O416        C428   1.269       .  A
O416       Co421   2.012       .  S
O417        C427   1.238       .  A
O417       Co420   1.957       .  S
O418        C425   1.259       .  A
O418       Co423   1.976       .  S
O419        C426   1.253       .  A
O419       Co422   2.008       .  S
Co420       O424   1.915       .  S
Co421       O424   1.908       .  S
Co422       O424   2.263       .  S
Co423       O424   2.067       .  S
O429        C437   1.261       .  A
O429       Co449   2.000       .  S
O430        C438   1.276       .  A
O430       Co450   1.994       .  S
O431        C439   1.256       .  A
O431       Co451   1.960       .  S
O432       C1748   1.268       .  A
O432       Co452   1.894       .  S
O433        C439   1.278       .  A
O433       Co450   2.040       .  S
O434        C440   1.291       .  A
O434       Co449   2.089       .  S
O435        C438   1.266       .  A
O435       Co452   1.976       .  S
O436       C1745   1.251       .  A
O436       Co451   1.972       .  S
C437       O1744   1.251       .  A
C440       O1740   1.268   1_455  A
O441        C454   1.262   1_554  A
O442        C455   1.254       .  A
O443       C1764   1.279   1_554  A
O444        C457   1.266   1_554  A
O445        C457   1.258       .  A
O446        C456   1.267       .  A
O447       C1762   1.302   1_554  A
O448        C455   1.275   1_554  A
Co449      O1761   1.983   1_455  S
Co450       O453   2.002       .  S
Co451       O453   2.034       .  S
Co452       O453   2.023       .  S
O453      Co1757   1.983       .  S
C454       O1755   1.302   1_556  A
C456       O1751   1.279   1_556  A
O458        C466   1.268       .  A
O458       Co478   2.008       .  S
O459        C467   1.235       .  A
O459       Co479   1.955       .  S
O460        C468   1.262       .  A
O460      Co1134   1.990   1_545  S
O461        C469   1.255       .  A
O461       Co481   2.011       .  S
O462        C468   1.266       .  A
O462       Co479   1.977       .  S
O463        C469   1.236       .  A
O463       Co478   1.949       .  S
O464        C467   1.251       .  A
O464      Co1135   2.001   1_545  S
O465        C466   1.256       .  A
O465       Co480   1.970       .  S
O470        C483   1.271   1_554  A
O471        C484   1.270       .  A
O472        C485   1.274   1_554  A
O473        C486   1.301       .  A
O473       Co808   2.083   1_546  S
O474        C486   1.272   1_554  A
O475        C485   1.258       .  A
O476        C483   1.299       .  A
O477        C484   1.268   1_554  A
O477       Co807   2.013   1_545  S
Co478       O482   1.893       .  S
Co479      O1136   1.892   1_545  S
Co480      O1114   1.986       .  S
Co480       O804   2.006       .  S
Co480       O482   2.073       .  S
Co481      O1118   1.990       .  S
Co481       O800   2.092       .  S
Co481       O482   2.276       .  S
O482      Co1133   1.893       .  S
C487        C488   1.405       .  A
C487        C492   1.412       .  A
C487        C505   1.451       .  S
C488        C493   1.495       .  S
C488        C489   1.406       .  A
C489        C490   1.412       .  A
C489        C494   1.452       .  S
C490        C491   1.427       .  A
C490        C506   1.452       .  S
C491        C492   1.425       .  A
C492        C495   1.451       .  S
C493        C496   1.411       .  A
C493        C500   1.411       .  A
C494        N511   1.158       .  T
C495        N513   1.158       .  T
C496        C497   1.408       .  A
C496        C501   1.451       .  S
C497        C498   1.414       .  A
C497        C503   1.451       .  S
C498        C499   1.414       .  A
C499        C500   1.412       .  A
C499        C502   1.451       .  S
C500        C504   1.449       .  S
C501        N508   1.157       .  T
C502        N509   1.157       .  T
C503        N507   1.157       .  T
C504       N1164   1.157       .  T
C505        N514   1.157       .  T
C506        N512   1.158       .  T
N510       C1158   1.157       .  T
C515        C516   1.410       .  A
C515        C520   1.408       .  A
C515        C533   1.449       .  S
C516        C521   1.497       .  S
C516        C517   1.411       .  A
C517        C518   1.412       .  A
C517        C522   1.449       .  S
C518        C519   1.411       .  A
C518        C534   1.450       .  S
C519        C520   1.411       .  A
C520        C523   1.450       .  S
C521        C524   1.408       .  A
C521        C528   1.407       .  A
C522        N539   1.157       .  T
C523        N541   1.157       .  T
C524        C525   1.412       .  A
C524        C529   1.453       .  S
C525        C526   1.426       .  A
C525        C531   1.451       .  S
C526        C527   1.425       .  A
C527        C528   1.413       .  A
C527        C530   1.452       .  S
C528        C532   1.451       .  S
C529        N536   1.157       .  T
C530        N537   1.158       .  T
C531        N535   1.158       .  T
C532        N538   1.157       .  T
C533        N542   1.156       .  T
C534        N540   1.157       .  T
C543        C544   1.407       .  A
C543        C548   1.407       .  A
C543        C561   1.452       .  S
C544        C549   1.488       .  S
C544        C545   1.408       .  A
C545        C546   1.409       .  A
C545        C550   1.452       .  S
C546        C547   1.419       .  A
C546        C562   1.450       .  S
C547        C548   1.422       .  A
C548        C551   1.452       .  S
C549        C552   1.411       .  A
C549        C556   1.408       .  A
C550        N567   1.157       .  T
C551        N569   1.158       .  T
C552        C553   1.410       .  A
C552        C557   1.450       .  S
C553        C554   1.411       .  A
C553        C559   1.450       .  S
C554        C555   1.411       .  A
C555        C556   1.404       .  A
C555        C558   1.448       .  S
C556        C560   1.451       .  S
C557        N564   1.157       .  T
C558        N565   1.155       .  T
C559        N563   1.157       .  T
C560        N566   1.157       .  T
C561        N570   1.157       .  T
C562        N568   1.157       .  T
C571        C572   1.405       .  A
C571        C576   1.411       .  A
C571        C589   1.453       .  S
C572        C577   1.498       .  S
C572        C573   1.407       .  A
C573        C574   1.413       .  A
C573        C578   1.451       .  S
C574        C575   1.429       .  A
C574        C590   1.452       .  S
C575        C576   1.431       .  A
C576        C579   1.453       .  S
C577        C580   1.411       .  A
C577        C584   1.412       .  A
C578       N1903   1.157   1_455  T
C579        N597   1.158       .  T
C580        C581   1.408       .  A
C580        C585   1.446       .  S
C581        C582   1.411       .  A
C581        C587   1.452       .  S
C582        C583   1.411       .  A
C583        C584   1.411       .  A
C583        C586   1.450       .  S
C584        C588   1.450       .  S
C585        N592   1.155       .  T
C586        N593   1.157       .  T
C587        N591   1.158       .  T
C588        N594   1.157       .  T
C589        N598   1.157       .  T
C590       N1904   1.158   1_455  T
N595       C1886   1.157       .  T
N596       C1898   1.158       .  T
C599        C600   1.411       .  A
C599        C604   1.410       .  A
C599        C617   1.450       .  S
C600        C605   1.490       .  S
C600        C601   1.410       .  A
C601        C602   1.406       .  A
C601        C606   1.449       .  S
C602        C603   1.409       .  A
C602        C618   1.452       .  S
C603        C604   1.410       .  A
C604        C607   1.450       .  S
C605        C608   1.408       .  A
C605        C612   1.407       .  A
C606        N623   1.157       .  T
C607        N625   1.157       .  T
C608        C609   1.409       .  A
C608        C613   1.453       .  S
C609        C610   1.423       .  A
C609        C615   1.452       .  S
C610        C611   1.421       .  A
C611        C612   1.409       .  A
C611        C614   1.452       .  S
C612        C616   1.451       .  S
C613       N1928   1.157       .  T
C614        N621   1.158       .  T
C615       N1927   1.158       .  T
C616        N622   1.157       .  T
C617        N626   1.157       .  T
C618        N624   1.157       .  T
N619       C1923   1.158       .  T
N620       C1921   1.157       .  T
C627        C628   1.406       .  A
C627        C632   1.410       .  A
C627        C645   1.451       .  S
C628        C633   1.490       .  S
C628        C629   1.405       .  A
C629        C630   1.410       .  A
C629        C634   1.453       .  S
C630        C631   1.428       .  A
C630        C646   1.452       .  S
C631        C632   1.424       .  A
C632        C635   1.452       .  S
C633        C636   1.409       .  A
C633        C640   1.409       .  A
C634        N651   1.158       .  T
C635        N653   1.158       .  T
C636        C637   1.410       .  A
C636        C641   1.450       .  S
C637        C638   1.417       .  A
C637        C643   1.451       .  S
C638        C639   1.418       .  A
C639        C640   1.407       .  A
C639        C642   1.451       .  S
C640        C644   1.453       .  S
C641        N648   1.157       .  T
C642        N649   1.157       .  T
C643        N647   1.157       .  T
C644        N650   1.157       .  T
C645        N654   1.157       .  T
C646        N652   1.158       .  T
C655        N656   1.362       .  A
C655        N660   1.363       .  A
C655        C958   1.504       .  S
N656        C657   1.355       .  A
C657        N658   1.347       .  A
C657        C793   1.455       .  S
N658        C659   1.349       .  A
C659        N660   1.354       .  A
C659        C754   1.447       .  S
C661        N662   1.357       .  A
C661        N666   1.362       .  A
C661        C965   1.475       .  S
N662        C663   1.351       .  A
C663        N664   1.363       .  A
C663        C735   1.473       .  S
N664        C665   1.366       .  A
C665        N666   1.358       .  A
C665        C812   1.476       .  S
C667        N668   1.369       .  A
C667        N672   1.361       .  A
C667        C937   1.502       .  S
N668        C669   1.361       .  A
C669        N670   1.355       .  A
C669        C810   1.473       .  S
N670        C671   1.354       .  A
C671        N672   1.350       .  A
C671        C783   1.460       .  S
C673        N674   1.359       .  A
C673        N678   1.360       .  A
C673        C930   1.471       .  S
N674        C675   1.356       .  A
C675        N676   1.349       .  A
C675        C764   1.454       .  S
N676        C677   1.350       .  A
C677        N678   1.356       .  A
C677        C796   1.447       .  S
C679        N680   1.370       .  A
C679        N684   1.363       .  A
C679        C902   1.509       .  S
N680        C681   1.364       .  A
C681        N682   1.349       .  A
C681        C767   1.457       .  S
N682        C683   1.346       .  A
C683        N684   1.356       .  A
C683        C752   1.457       .  S
C685        N686   1.368       .  A
C685        N690   1.366       .  A
C685        C909   1.492       .  S
N686        C687   1.360       .  A
C687        N688   1.361       .  A
C687        C738   1.479       .  S
N688        C689   1.358       .  A
C689        N690   1.358       .  A
C689        C781   1.480       .  S
C691        N692   1.364       .  A
C691        N696   1.363       .  A
C691        C874   1.518       .  S
N692        C693   1.357       .  A
C693        N694   1.364       .  A
C693        C811   1.474       .  S
N694        C695   1.358       .  A
C695        N696   1.356       .  A
C695        C784   1.481       .  S
C697        N698   1.365       .  A
C697        N702   1.365       .  A
C697        C881   1.473       .  S
N698        C699   1.358       .  A
C699        N700   1.341       .  A
C699        C765   1.450       .  S
N700        C701   1.337       .  A
C701        N702   1.356       .  A
C701        C795   1.451       .  S
C703        N704   1.367       .  A
C703        N708   1.363       .  A
C703        C853   1.500       .  S
N704        C705   1.361       .  A
C705        N706   1.349       .  A
C705        C766   1.470       .  S
N706        C707   1.352       .  A
C707        N708   1.357       .  A
C707        C753   1.450       .  S
C709        N710   1.363       .  A
C709        N714   1.362       .  A
C709        C846   1.483       .  S
N710        C711   1.357       .  A
C711        N712   1.357       .  A
C711        C737   1.471       .  S
N712        C713   1.358       .  A
C713        N714   1.357       .  A
C713        C782   1.465       .  S
C715        N716   1.365       .  A
C715        N720   1.364       .  A
C715        C818   1.501       .  S
N716        C717   1.355       .  A
C717        N718   1.364       .  A
C717        C736   1.482       .  S
N718        C719   1.364       .  A
C719        N720   1.355       .  A
C719        C813   1.482       .  S
C721        N722   1.357       .  A
C721        N726   1.359       .  A
C721        C825   1.470       .  S
N722        C723   1.353       .  A
C723        N724   1.350       .  A
C723        C794   1.438       .  S
N724        C725   1.347       .  A
C725        N726   1.355       .  A
C725        C755   1.449       .  S
O727        C735   1.274       .  A
O727      Co1074   1.915       .  S
O728        C736   1.261       .  A
O728      Co1075   1.985       .  S
O729        C737   1.299       .  A
O729      Co1076   2.073       .  S
O730        C738   1.271       .  A
O730      Co1077   2.023       .  S
O731        C737   1.273       .  A
O731      Co1075   1.907       .  S
O732        C738   1.264       .  A
O732      Co1074   1.990       .  S
O733        C736   1.272       .  A
O733      Co1077   2.035       .  S
O734        C735   1.299       .  A
O734      Co1076   2.068       .  S
O739        C752   1.268       .  A
O739       Co747   2.002       .  S
O740        C753   1.236       .  A
O740       Co748   1.954       .  S
O741        C754   1.253       .  A
O741       Co749   1.997       .  S
O742        C755   1.256       .  A
O742       Co750   1.972       .  S
O743        C755   1.267       .  A
O743       Co748   2.004       .  S
O744        C754   1.238       .  A
O744       Co747   1.956       .  S
O745        C752   1.259       .  A
O745       Co750   1.980       .  S
O746        C753   1.253       .  A
O746       Co749   2.011       .  S
Co747      O1054   1.915       .  S
Co747      O1059   1.990   1_554  S
Co747       O751   1.916       .  S
Co748      O1055   1.985   1_554  S
Co748      O1058   1.907       .  S
Co748       O751   1.905       .  S
Co749      O1056   2.073   1_554  S
Co749      O1061   2.068   1_554  S
Co749       O751   2.270       .  S
Co750      O1057   2.023       .  S
Co750      O1060   2.035       .  S
Co750       O751   2.070       .  S
O756        C764   1.263       .  A
O756       Co776   2.003       .  S
O757        C765   1.277       .  A
O757       Co777   1.989       .  S
O758        C766   1.257       .  A
O758       Co778   1.963       .  S
O759       C2075   1.268       .  A
O759       Co779   1.899       .  S
O760        C766   1.277       .  A
O760       Co777   2.043       .  S
O761        C767   1.291       .  A
O761       Co776   2.096       .  S
O762        C765   1.265       .  A
O762       Co779   1.974       .  S
O763       C2072   1.252       .  A
O763       Co778   1.971       .  S
C764       O2071   1.252       .  A
C767       O2067   1.268   1_455  A
O768        C781   1.264       .  A
O768      Co1103   1.894       .  S
O769        C782   1.255       .  A
O769      Co1104   1.957       .  S
O770       C2091   1.278       .  A
O770      Co1105   2.027       .  S
O771        C784   1.268       .  A
O771      Co1106   2.035       .  S
O772        C784   1.260       .  A
O772      Co1104   1.982       .  S
O773        C783   1.269       .  A
O773      Co1103   1.970       .  S
O774       C2089   1.302       .  A
O774      Co1106   2.136       .  S
O775        C782   1.275       .  A
O775      Co1105   2.042       .  S
Co776      O1095   1.894       .  S
Co776      O1100   1.970   1_554  S
Co776      O2088   1.989   1_455  S
Co777      O1096   1.957   1_554  S
Co777      O1099   1.982   1_554  S
Co777       O780   2.007       .  S
Co778      O1097   2.027       .  S
Co778      O1102   2.042       .  S
Co778       O780   2.031       .  S
Co779      O1098   2.035       .  S
Co779      O1101   2.136       .  S
Co779       O780   2.015       .  S
O780      Co2084   1.989       .  S
C781       O2082   1.302       .  A
C783       O2078   1.278       .  A
O785        C793   1.266       .  A
O785       Co805   2.003       .  S
O786        C794   1.235       .  A
O786       Co806   1.949       .  S
O787        C795   1.260       .  A
O788        C796   1.254       .  A
O788       Co808   2.010       .  S
O789        C795   1.268       .  A
O789       Co806   1.979       .  S
O790        C796   1.236       .  A
O790       Co805   1.949       .  S
O791        C794   1.248       .  A
O792        C793   1.259       .  A
O792       Co807   1.977       .  S
O797        C810   1.272       .  A
O797      Co1132   1.903       .  S
O798        C811   1.269       .  A
O798      Co1133   1.996       .  S
O799        C812   1.274       .  A
O799      Co1134   2.041       .  S
O800        C813   1.304       .  A
O801        C813   1.270       .  A
O801      Co1133   1.903       .  S
O802        C812   1.260       .  A
O802      Co1132   1.976       .  S
O803        C810   1.299       .  A
O803      Co1135   2.078       .  S
O804        C811   1.267       .  A
Co805      O1124   1.903       .  S
Co805      O1129   1.976   1_554  S
Co805       O809   1.890       .  S
Co806      O1125   1.996   1_554  S
Co806      O1128   1.903       .  S
Co807      O1126   2.041       .  S
Co807       O809   2.075       .  S
Co808      O1130   2.078   1_554  S
Co808       O809   2.281       .  S
C814        C815   1.406       .  A
C814        C819   1.408       .  A
C814        C832   1.453       .  S
C815        C820   1.488       .  S
C815        C816   1.406       .  A
C816        C817   1.410       .  A
C816        C821   1.453       .  S
C817        C818   1.426       .  A
C817        C833   1.452       .  S
C818        C819   1.424       .  A
C819        C822   1.451       .  S
C820        C823   1.411       .  A
C820        C827   1.412       .  A
C821        N838   1.157       .  T
C822        N840   1.157       .  T
C823        C824   1.405       .  A
C823        C828   1.450       .  S
C824        C825   1.411       .  A
C824        C830   1.451       .  S
C825        C826   1.410       .  A
C826        C827   1.407       .  A
C826        C829   1.451       .  S
C827        C831   1.450       .  S
C828        N835   1.157       .  T
C829        N836   1.157       .  T
C830        N834   1.157       .  T
C832        N841   1.157       .  T
C833        N839   1.158       .  T
C842        C843   1.413       .  A
C842        C847   1.410       .  A
C842        C860   1.451       .  S
C843        C848   1.500       .  S
C843        C844   1.412       .  A
C844        C845   1.410       .  A
C844        C849   1.450       .  S
C845        C846   1.413       .  A
C845        C861   1.452       .  S
C846        C847   1.415       .  A
C847        C850   1.452       .  S
C848        C851   1.411       .  A
C848        C855   1.409       .  A
C849        N866   1.157       .  T
C850        N868   1.158       .  T
C851        C852   1.412       .  A
C851        C856   1.453       .  S
C852        C853   1.422       .  A
C852        C858   1.451       .  S
C853        C854   1.420       .  A
C854        C855   1.411       .  A
C854        C857   1.451       .  S
C855        C859   1.451       .  S
C856        N863   1.158       .  T
C857        N864   1.157       .  T
C858        N862   1.158       .  T
C859        N865   1.157       .  T
C860        N869   1.157       .  T
C861        N867   1.157       .  T
C870        C871   1.405       .  A
C870        C875   1.409       .  A
C870        C888   1.455       .  S
C871        C876   1.492       .  S
C871        C872   1.404       .  A
C872        C873   1.412       .  A
C872        C877   1.452       .  S
C873        C874   1.432       .  A
C873        C889   1.452       .  S
C874        C875   1.433       .  A
C875        C878   1.453       .  S
C876        C879   1.412       .  A
C876        C883   1.409       .  A
C877        N894   1.157       .  T
C878        N896   1.158       .  T
C879        C880   1.410       .  A
C879        C884   1.449       .  S
C880        C881   1.411       .  A
C880        C886   1.451       .  S
C881        C882   1.410       .  A
C882        C883   1.405       .  A
C882        C885   1.449       .  S
C883        C887   1.452       .  S
C884        N891   1.157       .  T
C885        N892   1.157       .  T
C886        N890   1.157       .  T
C887        N893   1.157       .  T
C888        N897   1.158       .  T
C889        N895   1.158       .  T
C898        C899   1.406       .  A
C898        C903   1.411       .  A
C898        C916   1.452       .  S
C899        C904   1.502       .  S
C899        C900   1.408       .  A
C900        C901   1.416       .  A
C900        C905   1.448   1_455  S
C901        C902   1.422       .  A
C901        C917   1.449   1_455  S
C902        C903   1.426       .  A
C903        C906   1.452       .  S
C904        C907   1.412       .  A
C904        C911   1.411       .  A
C905       N2230   1.156       .  T
C906        N924   1.158       .  T
C907        C908   1.411       .  A
C907        C912   1.451       .  S
C908        C909   1.415       .  A
C908        C914   1.451       .  S
C909        C910   1.415       .  A
C910        C911   1.415       .  A
C910        C913   1.450       .  S
C911        C915   1.449       .  S
C912        N919   1.157       .  T
C913        N920   1.157       .  T
C914        N918   1.157       .  T
C915        N921   1.157       .  T
C916        N925   1.157       .  T
C917       N2231   1.157       .  T
N922       C2213   1.156       .  T
N923       C2225   1.157       .  T
C926        C927   1.410       .  A
C926        C931   1.410       .  A
C926        C944   1.449       .  S
C927        C932   1.491       .  S
C927        C928   1.410       .  A
C928        C929   1.405       .  A
C928        C933   1.448       .  S
C929        C930   1.410       .  A
C929        C945   1.452       .  S
C930        C931   1.411       .  A
C931        C934   1.450       .  S
C932        C935   1.405       .  A
C932        C939   1.406       .  A
C933        N950   1.156       .  T
C934        N952   1.157       .  T
C935        C936   1.408       .  A
C935        C940   1.454       .  S
C936        C937   1.428       .  A
C936        C942   1.453       .  S
C937        C938   1.423       .  A
C938        C939   1.411       .  A
C938        C941   1.452       .  S
C939        C943   1.450       .  S
C940       N2255   1.157       .  T
C941        N948   1.158       .  T
C942       N2254   1.158       .  T
C943        N949   1.157       .  T
C944        N953   1.157       .  T
C945        N951   1.157       .  T
N946       C2250   1.158       .  T
N947       C2248   1.157       .  T
C954        C955   1.404       .  A
C954        C959   1.408       .  A
C954        C972   1.451       .  S
C955        C960   1.487       .  S
C955        C956   1.404       .  A
C956        C957   1.408       .  A
C956        C961   1.454       .  S
C957        C958   1.429       .  A
C957        C973   1.452       .  S
C958        C959   1.426       .  A
C959        C962   1.452       .  S
C960        C963   1.410       .  A
C960        C967   1.408       .  A
C961        N978   1.157       .  T
C962        N980   1.158       .  T
C963        C964   1.408       .  A
C963        C968   1.450       .  S
C964        C965   1.411       .  A
C964        C970   1.450       .  S
C965        C966   1.414       .  A
C966        C967   1.404       .  A
C966        C969   1.451       .  S
C967        C971   1.449       .  S
C968        N975   1.157       .  T
C969        N976   1.157       .  T
C970        N974   1.157       .  T
C971        N977   1.156       .  T
C972        N981   1.157       .  T
C973        N979   1.158       .  T
C982        N983   1.362       .  A
C982        N987   1.363       .  A
C982       C1285   1.504       .  S
N983        C984   1.355       .  A
C984        N985   1.347       .  A
C984       C1120   1.455       .  S
N985        C986   1.349       .  A
C986        N987   1.354       .  A
C986       C1081   1.446       .  S
C988        N989   1.357       .  A
C988        N993   1.362       .  A
C988       C1292   1.475       .  S
N989        C990   1.351       .  A
C990        N991   1.363       .  A
C990       C1062   1.473       .  S
N991        C992   1.366       .  A
C992        N993   1.358       .  A
C992       C1139   1.476       .  S
C994        N995   1.369       .  A
C994        N999   1.361       .  A
C994       C1264   1.502       .  S
N995        C996   1.361       .  A
C996        N997   1.355       .  A
C996       C1137   1.473       .  S
N997        C998   1.354       .  A
C998        N999   1.350       .  A
C998       C1110   1.460       .  S
C1000      N1001   1.360       .  A
C1000      N1005   1.360       .  A
C1000      C1257   1.471       .  S
N1001      C1002   1.356       .  A
C1002      N1003   1.349       .  A
C1002      C1091   1.454       .  S
N1003      C1004   1.350       .  A
C1004      N1005   1.357       .  A
C1004      C1123   1.447       .  S
C1006      N1007   1.370       .  A
C1006      N1011   1.363       .  A
C1006      C1229   1.509       .  S
N1007      C1008   1.364       .  A
C1008      N1009   1.349       .  A
C1008      C1094   1.457       .  S
N1009      C1010   1.346       .  A
C1010      N1011   1.356       .  A
C1010      C1079   1.457       .  S
C1012      N1013   1.368       .  A
C1012      N1017   1.366       .  A
C1012      C1236   1.492       .  S
N1013      C1014   1.360       .  A
C1014      N1015   1.361       .  A
C1014      C1065   1.479       .  S
N1015      C1016   1.358       .  A
C1016      N1017   1.358       .  A
C1016      C1108   1.480       .  S
C1018      N1019   1.364       .  A
C1018      N1023   1.363       .  A
C1018      C1201   1.518       .  S
N1019      C1020   1.357       .  A
C1020      N1021   1.364       .  A
C1020      C1138   1.474       .  S
N1021      C1022   1.358       .  A
C1022      N1023   1.356       .  A
C1022      C1111   1.481       .  S
C1024      N1025   1.365       .  A
C1024      N1029   1.365       .  A
C1024      C1208   1.473       .  S
N1025      C1026   1.358       .  A
C1026      N1027   1.341       .  A
C1026      C1092   1.450       .  S
N1027      C1028   1.337       .  A
C1028      N1029   1.356       .  A
C1028      C1122   1.451       .  S
C1030      N1031   1.367       .  A
C1030      N1035   1.363       .  A
C1030      C1180   1.501       .  S
N1031      C1032   1.361       .  A
C1032      N1033   1.349       .  A
C1032      C1093   1.470       .  S
N1033      C1034   1.352       .  A
C1034      N1035   1.357       .  A
C1034      C1080   1.450       .  S
C1036      N1037   1.363       .  A
C1036      N1041   1.362       .  A
C1036      C1173   1.483       .  S
N1037      C1038   1.357       .  A
C1038      N1039   1.357       .  A
C1038      C1064   1.471       .  S
N1039      C1040   1.358       .  A
C1040      N1041   1.357       .  A
C1040      C1109   1.465       .  S
C1042      N1043   1.365       .  A
C1042      N1047   1.364       .  A
C1042      C1145   1.501       .  S
N1043      C1044   1.355       .  A
C1044      N1045   1.364       .  A
C1044      C1063   1.482       .  S
N1045      C1046   1.364       .  A
C1046      N1047   1.355       .  A
C1046      C1140   1.482       .  S
C1048      N1049   1.357       .  A
C1048      N1053   1.359       .  A
C1048      C1152   1.470       .  S
N1049      C1050   1.353       .  A
C1050      N1051   1.350       .  A
C1050      C1121   1.438       .  S
N1051      C1052   1.347       .  A
C1052      N1053   1.355       .  A
C1052      C1082   1.449       .  S
O1054      C1062   1.274   1_554  A
O1055      C1063   1.261       .  A
O1056      C1064   1.299       .  A
O1057      C1065   1.271   1_554  A
O1058      C1064   1.273   1_554  A
O1059      C1065   1.264       .  A
O1060      C1063   1.272   1_554  A
O1061      C1062   1.299       .  A
O1066      C1079   1.268       .  A
O1066     Co1074   2.002       .  S
O1067      C1080   1.236       .  A
O1067     Co1075   1.954       .  S
O1068      C1081   1.253       .  A
O1068     Co1076   1.997       .  S
O1069      C1082   1.256       .  A
O1069     Co1077   1.971       .  S
O1070      C1082   1.267       .  A
O1070     Co1075   2.004       .  S
O1071      C1081   1.238       .  A
O1071     Co1074   1.956       .  S
O1072      C1079   1.259       .  A
O1072     Co1077   1.980       .  S
O1073      C1080   1.253       .  A
O1073     Co1076   2.011       .  S
Co1074     O1078   1.917       .  S
Co1075     O1078   1.905       .  S
Co1076     O1078   2.270       .  S
Co1077     O1078   2.070       .  S
O1083      C1091   1.263       .  A
O1083     Co1103   2.003       .  S
O1084      C1092   1.277       .  A
O1084     Co1104   1.989       .  S
O1085      C1093   1.257       .  A
O1085     Co1105   1.963       .  S
O1086      C2402   1.268       .  A
O1086     Co1106   1.899       .  S
O1087      C1093   1.277       .  A
O1087     Co1104   2.043       .  S
O1088      C1094   1.291       .  A
O1088     Co1103   2.096       .  S
O1089      C1092   1.265       .  A
O1089     Co1106   1.974       .  S
O1090      C2399   1.252       .  A
O1090     Co1105   1.971       .  S
C1091      O2398   1.252       .  A
C1094      O2394   1.268   1_455  A
O1095      C1108   1.264   1_554  A
O1096      C1109   1.255       .  A
O1097      C2418   1.278   1_554  A
O1098      C1111   1.268   1_554  A
O1099      C1111   1.260       .  A
O1100      C1110   1.269       .  A
O1101      C2416   1.302   1_554  A
O1102      C1109   1.275   1_554  A
Co1103     O2415   1.989   1_455  S
Co1104     O1107   2.007       .  S
Co1105     O1107   2.031       .  S
Co1106     O1107   2.015       .  S
O1107     Co2411   1.989       .  S
C1108      O2409   1.302   1_556  A
C1110      O2405   1.278   1_556  A
O1112      C1120   1.266       .  A
O1112     Co1132   2.003       .  S
O1113      C1121   1.235       .  A
O1113     Co1133   1.949       .  S
O1114      C1122   1.260       .  A
O1115      C1123   1.254       .  A
O1115     Co1135   2.010       .  S
O1116      C1122   1.268       .  A
O1116     Co1133   1.979       .  S
O1117      C1123   1.236       .  A
O1117     Co1132   1.949       .  S
O1118      C1121   1.248       .  A
O1119      C1120   1.259       .  A
O1119     Co1134   1.978       .  S
O1124      C1137   1.272   1_554  A
O1125      C1138   1.269       .  A
O1126      C1139   1.274   1_554  A
O1127      C1140   1.304       .  A
O1128      C1140   1.270   1_554  A
O1129      C1139   1.260       .  A
O1130      C1137   1.299       .  A
O1131      C1138   1.267   1_554  A
Co1132     O1136   1.890       .  S
Co1134     O1136   2.075       .  S
Co1135     O1136   2.281       .  S
C1141      C1142   1.406       .  A
C1141      C1146   1.408       .  A
C1141      C1159   1.453       .  S
C1142      C1147   1.488       .  S
C1142      C1143   1.406       .  A
C1143      C1144   1.410       .  A
C1143      C1148   1.453       .  S
C1144      C1145   1.426       .  A
C1144      C1160   1.452       .  S
C1145      C1146   1.424       .  A
C1146      C1149   1.451       .  S
C1147      C1150   1.411       .  A
C1147      C1154   1.412       .  A
C1148      N1165   1.157       .  T
C1149      N1167   1.157       .  T
C1150      C1151   1.405       .  A
C1150      C1155   1.450       .  S
C1151      C1152   1.411       .  A
C1151      C1157   1.451       .  S
C1152      C1153   1.410       .  A
C1153      C1154   1.407       .  A
C1153      C1156   1.451       .  S
C1154      C1158   1.450       .  S
C1155      N1162   1.157       .  T
C1156      N1163   1.157       .  T
C1157      N1161   1.157       .  T
C1159      N1168   1.157       .  T
C1160      N1166   1.158       .  T
C1169      C1170   1.413       .  A
C1169      C1174   1.410       .  A
C1169      C1187   1.451       .  S
C1170      C1175   1.500       .  S
C1170      C1171   1.412       .  A
C1171      C1172   1.410       .  A
C1171      C1176   1.449       .  S
C1172      C1173   1.413       .  A
C1172      C1188   1.452       .  S
C1173      C1174   1.415       .  A
C1174      C1177   1.452       .  S
C1175      C1178   1.411       .  A
C1175      C1182   1.409       .  A
C1176      N1193   1.157       .  T
C1177      N1195   1.158       .  T
C1178      C1179   1.412       .  A
C1178      C1183   1.452       .  S
C1179      C1180   1.422       .  A
C1179      C1185   1.451       .  S
C1180      C1181   1.420       .  A
C1181      C1182   1.411       .  A
C1181      C1184   1.451       .  S
C1182      C1186   1.451       .  S
C1183      N1190   1.158       .  T
C1184      N1191   1.157       .  T
C1185      N1189   1.158       .  T
C1186      N1192   1.157       .  T
C1187      N1196   1.157       .  T
C1188      N1194   1.157       .  T
C1197      C1198   1.405       .  A
C1197      C1202   1.409       .  A
C1197      C1215   1.455       .  S
C1198      C1203   1.492       .  S
C1198      C1199   1.404       .  A
C1199      C1200   1.412       .  A
C1199      C1204   1.452       .  S
C1200      C1201   1.432       .  A
C1200      C1216   1.452       .  S
C1201      C1202   1.433       .  A
C1202      C1205   1.453       .  S
C1203      C1206   1.412       .  A
C1203      C1210   1.409       .  A
C1204      N1221   1.157       .  T
C1205      N1223   1.158       .  T
C1206      C1207   1.410       .  A
C1206      C1211   1.449       .  S
C1207      C1208   1.411       .  A
C1207      C1213   1.451       .  S
C1208      C1209   1.410       .  A
C1209      C1210   1.405       .  A
C1209      C1212   1.449       .  S
C1210      C1214   1.452       .  S
C1211      N1218   1.157       .  T
C1212      N1219   1.157       .  T
C1213      N1217   1.157       .  T
C1214      N1220   1.157       .  T
C1215      N1224   1.158       .  T
C1216      N1222   1.158       .  T
C1225      C1226   1.406       .  A
C1225      C1230   1.411       .  A
C1225      C1243   1.452       .  S
C1226      C1231   1.502       .  S
C1226      C1227   1.408       .  A
C1227      C1228   1.416       .  A
C1227      C1232   1.448   1_455  S
C1228      C1229   1.422       .  A
C1228      C1244   1.449   1_455  S
C1229      C1230   1.427       .  A
C1230      C1233   1.452       .  S
C1231      C1234   1.412       .  A
C1231      C1238   1.411       .  A
C1232      N2557   1.156       .  T
C1233      N1251   1.158       .  T
C1234      C1235   1.411       .  A
C1234      C1239   1.451       .  S
C1235      C1236   1.415       .  A
C1235      C1241   1.451       .  S
C1236      C1237   1.415       .  A
C1237      C1238   1.415       .  A
C1237      C1240   1.450       .  S
C1238      C1242   1.449       .  S
C1239      N1246   1.157       .  T
C1240      N1247   1.157       .  T
C1241      N1245   1.157       .  T
C1242      N1248   1.157       .  T
C1243      N1252   1.157       .  T
C1244      N2558   1.157       .  T
N1249      C2540   1.156       .  T
N1250      C2552   1.157       .  T
C1253      C1254   1.410       .  A
C1253      C1258   1.410       .  A
C1253      C1271   1.449       .  S
C1254      C1259   1.491       .  S
C1254      C1255   1.410       .  A
C1255      C1256   1.406       .  A
C1255      C1260   1.448       .  S
C1256      C1257   1.410       .  A
C1256      C1272   1.452       .  S
C1257      C1258   1.411       .  A
C1258      C1261   1.450       .  S
C1259      C1262   1.405       .  A
C1259      C1266   1.406       .  A
C1260      N1277   1.156       .  T
C1261      N1279   1.157       .  T
C1262      C1263   1.408       .  A
C1262      C1267   1.454       .  S
C1263      C1264   1.428       .  A
C1263      C1269   1.453       .  S
C1264      C1265   1.423       .  A
C1265      C1266   1.411       .  A
C1265      C1268   1.452       .  S
C1266      C1270   1.450       .  S
C1267      N2582   1.157       .  T
C1268      N1275   1.158       .  T
C1269      N2581   1.158       .  T
C1270      N1276   1.157       .  T
C1271      N1280   1.157       .  T
C1272      N1278   1.157       .  T
N1273      C2577   1.158       .  T
N1274      C2575   1.157       .  T
C1281      C1282   1.404       .  A
C1281      C1286   1.408       .  A
C1281      C1299   1.451       .  S
C1282      C1287   1.487       .  S
C1282      C1283   1.404       .  A
C1283      C1284   1.408       .  A
C1283      C1288   1.454       .  S
C1284      C1285   1.429       .  A
C1284      C1300   1.452       .  S
C1285      C1286   1.426       .  A
C1286      C1289   1.452       .  S
C1287      C1290   1.410       .  A
C1287      C1294   1.408       .  A
C1288      N1305   1.157       .  T
C1289      N1307   1.158       .  T
C1290      C1291   1.408       .  A
C1290      C1295   1.450       .  S
C1291      C1292   1.411       .  A
C1291      C1297   1.450       .  S
C1292      C1293   1.414       .  A
C1293      C1294   1.404       .  A
C1293      C1296   1.451       .  S
C1294      C1298   1.449       .  S
C1295      N1302   1.157       .  T
C1296      N1303   1.157       .  T
C1297      N1301   1.157       .  T
C1298      N1304   1.156       .  T
C1299      N1308   1.157       .  T
C1300      N1306   1.158       .  T
C1309      N1310   1.362       .  A
C1309      N1314   1.366       .  A
C1309      C1612   1.504       .  S
N1310      C1311   1.356       .  A
C1311      N1312   1.346       .  A
C1311      C1447   1.454       .  S
N1312      C1313   1.348       .  A
C1313      N1314   1.358       .  A
C1313      C1408   1.449       .  S
C1315      N1316   1.362       .  A
C1315      N1320   1.364       .  A
C1315      C1619   1.487       .  S
N1316      C1317   1.356       .  A
C1317      N1318   1.358       .  A
C1317      C1389   1.473       .  S
N1318      C1319   1.361       .  A
C1319      N1320   1.356       .  A
C1319      C1466   1.470       .  S
C1321      N1322   1.366       .  A
C1321      N1326   1.363       .  A
C1321      C1591   1.496       .  S
N1322      C1323   1.357       .  A
C1323      N1324   1.355       .  A
C1323      C1464   1.470       .  S
N1324      C1325   1.356       .  A
C1325      N1326   1.354       .  A
C1325      C1437   1.463       .  S
C1327      N1328   1.360       .  A
C1327      N1332   1.361       .  A
C1327      C1584   1.471       .  S
N1328      C1329   1.356       .  A
C1329      N1330   1.349       .  A
C1329      C1418   1.454       .  S
N1330      C1331   1.350       .  A
C1331      N1332   1.356       .  A
C1331      C1450   1.448       .  S
C1333      N1334   1.366       .  A
C1333      N1338   1.362       .  A
C1333      C1556   1.516       .  S
N1334      C1335   1.359       .  A
C1335      N1336   1.347       .  A
C1335      C1421   1.448       .  S
N1336      C1337   1.344       .  A
C1337      N1338   1.355       .  A
C1337      C1406   1.452       .  S
C1339      N1340   1.366       .  A
C1339      N1344   1.362       .  A
C1339      C1563   1.477       .  S
N1340      C1341   1.359       .  A
C1341      N1342   1.360       .  A
C1341      C1392   1.475       .  S
N1342      C1343   1.357       .  A
C1343      N1344   1.355       .  A
C1343      C1435   1.471       .  S
C1345      N1346   1.363       .  A
C1345      N1350   1.357       .  A
C1345      C1528   1.492       .  S
N1346      C1347   1.357       .  A
C1347      N1348   1.369       .  A
C1347      C1465   1.480       .  S
N1348      C1349   1.364       .  A
C1349      N1350   1.352       .  A
C1349      C1438   1.479       .  S
C1351      N1352   1.366       .  A
C1351      N1356   1.365       .  A
C1351      C1535   1.475       .  S
N1352      C1353   1.358       .  A
C1353      N1354   1.343       .  A
C1353      C1419   1.453       .  S
N1354      C1355   1.340       .  A
C1355      N1356   1.355       .  A
C1355      C1449   1.452       .  S
C1357      N1358   1.367       .  A
C1357      N1362   1.365       .  A
C1357      C1507   1.509       .  S
N1358      C1359   1.361       .  A
C1359      N1360   1.347       .  A
C1359      C1420   1.466       .  S
N1360      C1361   1.350       .  A
C1361      N1362   1.358       .  A
C1361      C1407   1.449       .  S
C1363      N1364   1.361       .  A
C1363      N1368   1.362       .  A
C1363      C1500   1.478       .  S
N1364      C1365   1.358       .  A
C1365      N1366   1.357       .  A
C1365      C1391   1.468       .  S
N1366      C1367   1.357       .  A
C1367      N1368   1.358       .  A
C1367      C1436   1.467       .  S
C1369      N1370   1.368       .  A
C1369      N1374   1.365       .  A
C1369      C1472   1.507       .  S
N1370      C1371   1.358       .  A
C1371      N1372   1.362       .  A
C1371      C1390   1.480       .  S
N1372      C1373   1.360       .  A
C1373      N1374   1.357       .  A
C1373      C1467   1.482       .  S
C1375      N1376   1.362       .  A
C1375      N1380   1.362       .  A
C1375      C1479   1.484       .  S
N1376      C1377   1.357       .  A
C1377      N1378   1.349       .  A
C1377      C1448   1.445       .  S
N1378      C1379   1.347       .  A
C1379      N1380   1.357       .  A
C1379      C1409   1.454       .  S
O1381      C1389   1.273       .  A
O1381     Co1728   1.908       .  S
O1382      C1390   1.260       .  A
O1382     Co1729   1.986       .  S
O1383      C1391   1.297       .  A
O1383     Co1730   2.070       .  S
O1384      C1392   1.269       .  A
O1384     Co1731   2.016       .  S
O1385      C1391   1.273       .  A
O1385     Co1729   1.906       .  S
O1386      C1392   1.264       .  A
O1386     Co1728   1.991       .  S
O1387      C1390   1.272       .  A
O1387     Co1731   2.034       .  S
O1388      C1389   1.298       .  A
O1388     Co1730   2.075       .  S
O1393      C1406   1.268       .  A
O1393     Co1401   2.001       .  S
O1394      C1407   1.237       .  A
O1394     Co1402   1.953       .  S
O1395      C1408   1.253       .  A
O1395     Co1403   2.001       .  S
O1396      C1409   1.256       .  A
O1396     Co1404   1.970       .  S
O1397      C1409   1.269       .  A
O1397     Co1402   2.012       .  S
O1398      C1408   1.238       .  A
O1398     Co1401   1.957       .  S
O1399      C1406   1.259       .  A
O1399     Co1404   1.976       .  S
O1400      C1407   1.253       .  A
O1400     Co1403   2.008       .  S
Co1401     O1708   1.908       .  S
Co1401     O1713   1.991   1_554  S
Co1401     O1405   1.915       .  S
Co1402     O1709   1.986   1_554  S
Co1402     O1712   1.906       .  S
Co1402     O1405   1.908       .  S
Co1403     O1710   2.070   1_554  S
Co1403     O1715   2.075   1_554  S
Co1403     O1405   2.263       .  S
Co1404     O1711   2.016       .  S
Co1404     O1714   2.034       .  S
Co1404     O1405   2.067       .  S
O1410      C1418   1.261       .  A
O1410     Co1430   2.000       .  S
O1411      C1419   1.276       .  A
O1411     Co1431   1.994       .  S
O1412      C1420   1.256       .  A
O1412     Co1432   1.960       .  S
O1413     Co1433   1.894       .  S
O1414      C1420   1.278       .  A
O1414     Co1431   2.040       .  S
O1415      C1421   1.291       .  A
O1415     Co1430   2.089       .  S
O1416      C1419   1.266       .  A
O1416     Co1433   1.976       .  S
O1417     Co1432   1.972   1_455  S
O1422      C1435   1.262       .  A
O1422     Co1757   1.886       .  S
O1423      C1436   1.254       .  A
O1423     Co1758   1.959       .  S
O1424     Co1759   2.033   1_455  S
O1425      C1438   1.266       .  A
O1425     Co1760   2.036       .  S
O1426      C1438   1.258       .  A
O1426     Co1758   1.974       .  S
O1427      C1437   1.267       .  A
O1427     Co1757   1.970       .  S
O1428     Co1760   2.133   1_455  S
O1429      C1436   1.275       .  A
O1429     Co1759   2.043       .  S
Co1430     O1749   1.886       .  S
Co1430     O1754   1.970   1_554  S
Co1431     O1750   1.959   1_554  S
Co1431     O1753   1.974   1_554  S
Co1431     O1434   2.002       .  S
Co1432     O1751   2.033   1_655  S
Co1432     O1756   2.043       .  S
Co1432     O1434   2.034       .  S
Co1433     O1752   2.036       .  S
Co1433     O1755   2.133   1_655  S
Co1433     O1434   2.023       .  S
O1439      C1447   1.268       .  A
O1439     Co1459   2.008       .  S
O1440      C1448   1.235       .  A
O1440     Co1460   1.955       .  S
O1441      C1449   1.262       .  A
O1441     Co2115   1.990   1_545  S
O1442      C1450   1.255       .  A
O1442     Co1462   2.011       .  S
O1443      C1449   1.267       .  A
O1443     Co1460   1.977       .  S
O1444      C1450   1.236       .  A
O1444     Co1459   1.949       .  S
O1445      C1448   1.251       .  A
O1445     Co2116   2.001   1_545  S
O1446      C1447   1.256       .  A
O1446     Co1461   1.970       .  S
O1451      C1464   1.271       .  A
O1451     Co1786   1.902       .  S
O1452      C1465   1.270       .  A
O1452     Co1787   1.998       .  S
O1453      C1466   1.274       .  A
O1453     Co1788   2.037       .  S
O1454      C1467   1.302       .  A
O1454     Co2443   2.083   1_545  S
O1455      C1467   1.272       .  A
O1455     Co1787   1.910       .  S
O1456      C1466   1.258       .  A
O1456     Co1786   1.976       .  S
O1457      C1464   1.299       .  A
O1457     Co1789   2.074       .  S
O1458      C1465   1.268       .  A
O1458     Co2442   2.013   1_545  S
Co1459     O1778   1.902       .  S
Co1459     O1783   1.976   1_554  S
Co1459     O1463   1.893       .  S
Co1460     O1779   1.998   1_554  S
Co1460     O1782   1.910       .  S
Co1460     O2117   1.892   1_545  S
Co1461     O2095   1.986       .  S
Co1461     O1780   2.036       .  S
Co1461     O2439   2.006       .  S
Co1461     O1463   2.073       .  S
Co1462     O2099   1.990       .  S
Co1462     O2435   2.092   1_554  S
Co1462     O1784   2.074   1_554  S
Co1462     O1463   2.276       .  S
O1463     Co2114   1.893       .  S
C1468      C1469   1.405       .  A
C1468      C1473   1.412       .  A
C1468      C1486   1.451       .  S
C1469      C1474   1.495       .  S
C1469      C1470   1.406       .  A
C1470      C1471   1.412       .  A
C1470      C1475   1.452       .  S
C1471      C1472   1.427       .  A
C1471      C1487   1.452       .  S
C1472      C1473   1.425       .  A
C1473      C1476   1.451       .  S
C1474      C1477   1.411       .  A
C1474      C1481   1.411       .  A
C1475      N1492   1.158       .  T
C1476      N1494   1.158       .  T
C1477      C1478   1.408       .  A
C1477      C1482   1.451       .  S
C1478      C1479   1.414       .  A
C1478      C1484   1.451       .  S
C1479      C1480   1.414       .  A
C1480      C1481   1.412       .  A
C1480      C1483   1.451       .  S
C1481      C1485   1.449       .  S
C1482      N1489   1.157       .  T
C1483      N1490   1.157       .  T
C1484      N1488   1.157       .  T
C1485      N2145   1.157       .  T
C1486      N1495   1.157       .  T
C1487      N1493   1.158       .  T
N1491      C2139   1.157       .  T
C1496      C1497   1.410       .  A
C1496      C1501   1.408       .  A
C1496      C1514   1.449       .  S
C1497      C1502   1.497       .  S
C1497      C1498   1.411       .  A
C1498      C1499   1.412       .  A
C1498      C1503   1.449       .  S
C1499      C1500   1.411       .  A
C1499      C1515   1.450       .  S
C1500      C1501   1.411       .  A
C1501      C1504   1.450       .  S
C1502      C1505   1.408       .  A
C1502      C1509   1.407       .  A
C1503      N1520   1.157       .  T
C1504      N1522   1.157       .  T
C1505      C1506   1.412       .  A
C1505      C1510   1.453       .  S
C1506      C1507   1.426       .  A
C1506      C1512   1.451       .  S
C1507      C1508   1.425       .  A
C1508      C1509   1.413       .  A
C1508      C1511   1.452       .  S
C1509      C1513   1.451       .  S
C1510      N1517   1.157       .  T
C1511      N1518   1.158       .  T
C1512      N1516   1.158       .  T
C1513      N1519   1.157       .  T
C1514      N1523   1.156       .  T
C1515      N1521   1.157       .  T
C1524      C1525   1.407       .  A
C1524      C1529   1.407       .  A
C1524      C1542   1.452       .  S
C1525      C1530   1.488       .  S
C1525      C1526   1.408       .  A
C1526      C1527   1.409       .  A
C1526      C1531   1.452       .  S
C1527      C1528   1.419       .  A
C1527      C1543   1.450       .  S
C1528      C1529   1.422       .  A
C1529      C1532   1.452       .  S
C1530      C1533   1.411       .  A
C1530      C1537   1.408       .  A
C1531      N1548   1.157       .  T
C1532      N1550   1.158       .  T
C1533      C1534   1.410       .  A
C1533      C1538   1.450       .  S
C1534      C1535   1.411       .  A
C1534      C1540   1.450       .  S
C1535      C1536   1.411       .  A
C1536      C1537   1.404       .  A
C1536      C1539   1.448       .  S
C1537      C1541   1.451       .  S
C1538      N1545   1.157       .  T
C1539      N1546   1.155       .  T
C1540      N1544   1.157       .  T
C1541      N1547   1.157       .  T
C1542      N1551   1.157       .  T
C1543      N1549   1.157       .  T
C1552      C1553   1.405       .  A
C1552      C1557   1.411       .  A
C1552      C1570   1.453       .  S
C1553      C1558   1.498       .  S
C1553      C1554   1.407       .  A
C1554      C1555   1.413       .  A
C1554      C1559   1.451       .  S
C1555      C1556   1.429       .  A
C1555      C1571   1.452       .  S
C1556      C1557   1.431       .  A
C1557      C1560   1.453       .  S
C1558      C1561   1.411       .  A
C1558      C1565   1.412       .  A
C1560      N1578   1.158       .  T
C1561      C1562   1.408       .  A
C1561      C1566   1.446       .  S
C1562      C1563   1.411       .  A
C1562      C1568   1.452       .  S
C1563      C1564   1.411       .  A
C1564      C1565   1.411       .  A
C1564      C1567   1.450       .  S
C1565      C1569   1.450       .  S
C1566      N1573   1.155       .  T
C1567      N1574   1.157       .  T
C1568      N1572   1.158       .  T
C1569      N1575   1.157       .  T
C1570      N1579   1.157       .  T
C1580      C1581   1.411       .  A
C1580      C1585   1.410       .  A
C1580      C1598   1.450       .  S
C1581      C1586   1.490       .  S
C1581      C1582   1.410       .  A
C1582      C1583   1.406       .  A
C1582      C1587   1.449       .  S
C1583      C1584   1.409       .  A
C1583      C1599   1.452       .  S
C1584      C1585   1.410       .  A
C1585      C1588   1.450       .  S
C1586      C1589   1.408       .  A
C1586      C1593   1.406       .  A
C1587      N1604   1.157       .  T
C1588      N1606   1.157       .  T
C1589      C1590   1.409       .  A
C1589      C1594   1.453       .  S
C1590      C1591   1.423       .  A
C1590      C1596   1.452       .  S
C1591      C1592   1.421       .  A
C1592      C1593   1.409       .  A
C1592      C1595   1.452       .  S
C1593      C1597   1.451       .  S
C1595      N1602   1.158       .  T
C1597      N1603   1.157       .  T
C1598      N1607   1.157       .  T
C1599      N1605   1.157       .  T
C1608      C1609   1.406       .  A
C1608      C1613   1.410       .  A
C1608      C1626   1.451       .  S
C1609      C1614   1.491       .  S
C1609      C1610   1.405       .  A
C1610      C1611   1.410       .  A
C1610      C1615   1.453       .  S
C1611      C1612   1.428       .  A
C1611      C1627   1.452       .  S
C1612      C1613   1.424       .  A
C1613      C1616   1.452       .  S
C1614      C1617   1.409       .  A
C1614      C1621   1.409       .  A
C1615      N1632   1.158       .  T
C1616      N1634   1.158       .  T
C1617      C1618   1.410       .  A
C1617      C1622   1.450       .  S
C1618      C1619   1.417       .  A
C1618      C1624   1.451       .  S
C1619      C1620   1.418       .  A
C1620      C1621   1.407       .  A
C1620      C1623   1.451       .  S
C1621      C1625   1.453       .  S
C1622      N1629   1.157       .  T
C1623      N1630   1.157       .  T
C1624      N1628   1.157       .  T
C1625      N1631   1.157       .  T
C1626      N1635   1.157       .  T
C1627      N1633   1.158       .  T
C1636      N1637   1.362       .  A
C1636      N1641   1.366       .  A
C1636      C1939   1.504       .  S
N1637      C1638   1.356       .  A
C1638      N1639   1.346       .  A
C1638      C1774   1.454       .  S
N1639      C1640   1.348       .  A
C1640      N1641   1.358       .  A
C1640      C1735   1.449       .  S
C1642      N1643   1.362       .  A
C1642      N1647   1.364       .  A
C1642      C1946   1.487       .  S
N1643      C1644   1.356       .  A
C1644      N1645   1.358       .  A
C1644      C1716   1.473       .  S
N1645      C1646   1.361       .  A
C1646      N1647   1.356       .  A
C1646      C1793   1.470       .  S
C1648      N1649   1.366       .  A
C1648      N1653   1.363       .  A
C1648      C1918   1.496       .  S
N1649      C1650   1.357       .  A
C1650      N1651   1.355       .  A
C1650      C1791   1.470       .  S
N1651      C1652   1.356       .  A
C1652      N1653   1.354       .  A
C1652      C1764   1.463       .  S
C1654      N1655   1.360       .  A
C1654      N1659   1.361       .  A
C1654      C1911   1.471       .  S
N1655      C1656   1.356       .  A
C1656      N1657   1.349       .  A
C1656      C1745   1.454       .  S
N1657      C1658   1.350       .  A
C1658      N1659   1.356       .  A
C1658      C1777   1.448       .  S
C1660      N1661   1.366       .  A
C1660      N1665   1.362       .  A
C1660      C1883   1.516       .  S
N1661      C1662   1.359       .  A
C1662      N1663   1.347       .  A
C1662      C1748   1.448       .  S
N1663      C1664   1.344       .  A
C1664      N1665   1.355       .  A
C1664      C1733   1.452       .  S
C1666      N1667   1.366       .  A
C1666      N1671   1.362       .  A
C1666      C1890   1.477       .  S
N1667      C1668   1.359       .  A
C1668      N1669   1.360       .  A
C1668      C1719   1.475       .  S
N1669      C1670   1.357       .  A
C1670      N1671   1.355       .  A
C1670      C1762   1.471       .  S
C1672      N1673   1.363       .  A
C1672      N1677   1.357       .  A
C1672      C1855   1.492       .  S
N1673      C1674   1.357       .  A
C1674      N1675   1.369       .  A
C1674      C1792   1.480       .  S
N1675      C1676   1.364       .  A
C1676      N1677   1.352       .  A
C1676      C1765   1.479       .  S
C1678      N1679   1.366       .  A
C1678      N1683   1.365       .  A
C1678      C1862   1.475       .  S
N1679      C1680   1.358       .  A
C1680      N1681   1.343       .  A
C1680      C1746   1.453       .  S
N1681      C1682   1.340       .  A
C1682      N1683   1.355       .  A
C1682      C1776   1.452       .  S
C1684      N1685   1.367       .  A
C1684      N1689   1.365       .  A
C1684      C1834   1.509       .  S
N1685      C1686   1.361       .  A
C1686      N1687   1.347       .  A
C1686      C1747   1.466       .  S
N1687      C1688   1.350       .  A
C1688      N1689   1.358       .  A
C1688      C1734   1.449       .  S
C1690      N1691   1.361       .  A
C1690      N1695   1.362       .  A
C1690      C1827   1.478       .  S
N1691      C1692   1.358       .  A
C1692      N1693   1.357       .  A
C1692      C1718   1.468       .  S
N1693      C1694   1.357       .  A
C1694      N1695   1.358       .  A
C1694      C1763   1.467       .  S
C1696      N1697   1.368       .  A
C1696      N1701   1.365       .  A
C1696      C1799   1.507       .  S
N1697      C1698   1.358       .  A
C1698      N1699   1.362       .  A
C1698      C1717   1.479       .  S
N1699      C1700   1.360       .  A
C1700      N1701   1.357       .  A
C1700      C1794   1.482       .  S
C1702      N1703   1.362       .  A
C1702      N1707   1.362       .  A
C1702      C1806   1.484       .  S
N1703      C1704   1.357       .  A
C1704      N1705   1.349       .  A
C1704      C1775   1.445       .  S
N1705      C1706   1.347       .  A
C1706      N1707   1.357       .  A
C1706      C1736   1.454       .  S
O1708      C1716   1.273   1_554  A
O1709      C1717   1.260       .  A
O1710      C1718   1.297       .  A
O1711      C1719   1.269   1_554  A
O1712      C1718   1.273   1_554  A
O1713      C1719   1.264       .  A
O1714      C1717   1.272   1_554  A
O1715      C1716   1.298       .  A
O1720      C1733   1.268       .  A
O1720     Co1728   2.001       .  S
O1721      C1734   1.237       .  A
O1721     Co1729   1.953       .  S
O1722      C1735   1.253       .  A
O1722     Co1730   2.001       .  S
O1723      C1736   1.256       .  A
O1723     Co1731   1.970       .  S
O1724      C1736   1.269       .  A
O1724     Co1729   2.012       .  S
O1725      C1735   1.238       .  A
O1725     Co1728   1.957       .  S
O1726      C1733   1.259       .  A
O1726     Co1731   1.976       .  S
O1727      C1734   1.253       .  A
O1727     Co1730   2.008       .  S
Co1728     O1732   1.915       .  S
Co1729     O1732   1.908       .  S
Co1730     O1732   2.263       .  S
Co1731     O1732   2.067       .  S
O1737      C1745   1.261       .  A
O1737     Co1757   2.000       .  S
O1738      C1746   1.276       .  A
O1738     Co1758   1.994       .  S
O1739      C1747   1.256       .  A
O1739     Co1759   1.960       .  S
O1740     Co1760   1.894       .  S
O1741      C1747   1.278       .  A
O1741     Co1758   2.040       .  S
O1742      C1748   1.291       .  A
O1742     Co1757   2.089       .  S
O1743      C1746   1.266       .  A
O1743     Co1760   1.976       .  S
O1744     Co1759   1.972   1_455  S
O1749      C1762   1.262   1_554  A
O1750      C1763   1.254       .  A
O1752      C1765   1.266   1_554  A
O1753      C1765   1.258       .  A
O1754      C1764   1.267       .  A
O1756      C1763   1.275   1_554  A
Co1758     O1761   2.002       .  S
Co1759     O1761   2.034       .  S
Co1760     O1761   2.023       .  S
O1766      C1774   1.268       .  A
O1766     Co1786   2.008       .  S
O1767      C1775   1.235       .  A
O1767     Co1787   1.955       .  S
O1768      C1776   1.262       .  A
O1768     Co2442   1.990   1_545  S
O1769      C1777   1.255       .  A
O1769     Co1789   2.011       .  S
O1770      C1776   1.266       .  A
O1770     Co1787   1.977       .  S
O1771      C1777   1.236       .  A
O1771     Co1786   1.949       .  S
O1772      C1775   1.251       .  A
O1772     Co2443   2.001   1_545  S
O1773      C1774   1.256       .  A
O1773     Co1788   1.970       .  S
O1778      C1791   1.271   1_554  A
O1779      C1792   1.270       .  A
O1780      C1793   1.274   1_554  A
O1781      C1794   1.302       .  A
O1781     Co2116   2.083   1_546  S
O1782      C1794   1.272   1_554  A
O1783      C1793   1.258       .  A
O1784      C1791   1.299       .  A
O1785      C1792   1.268   1_554  A
O1785     Co2115   2.013   1_545  S
Co1786     O1790   1.893       .  S
Co1787     O2444   1.892   1_545  S
Co1788     O2422   1.986       .  S
Co1788     O2112   2.006       .  S
Co1788     O1790   2.073       .  S
Co1789     O2426   1.990       .  S
Co1789     O2108   2.092       .  S
Co1789     O1790   2.276       .  S
O1790     Co2441   1.893       .  S
C1795      C1796   1.405       .  A
C1795      C1800   1.412       .  A
C1795      C1813   1.451       .  S
C1796      C1801   1.495       .  S
C1796      C1797   1.406       .  A
C1797      C1798   1.412       .  A
C1797      C1802   1.452       .  S
C1798      C1799   1.427       .  A
C1798      C1814   1.452       .  S
C1799      C1800   1.425       .  A
C1800      C1803   1.451       .  S
C1801      C1804   1.411       .  A
C1801      C1808   1.411       .  A
C1802      N1819   1.158       .  T
C1803      N1821   1.158       .  T
C1804      C1805   1.408       .  A
C1804      C1809   1.451       .  S
C1805      C1806   1.414       .  A
C1805      C1811   1.451       .  S
C1806      C1807   1.414       .  A
C1807      C1808   1.412       .  A
C1807      C1810   1.451       .  S
C1808      C1812   1.449       .  S
C1809      N1816   1.157       .  T
C1810      N1817   1.157       .  T
C1811      N1815   1.157       .  T
C1812      N2472   1.157       .  T
C1813      N1822   1.157       .  T
C1814      N1820   1.158       .  T
N1818      C2466   1.157       .  T
C1823      C1824   1.410       .  A
C1823      C1828   1.408       .  A
C1823      C1841   1.449       .  S
C1824      C1829   1.497       .  S
C1824      C1825   1.411       .  A
C1825      C1826   1.412       .  A
C1825      C1830   1.449       .  S
C1826      C1827   1.411       .  A
C1826      C1842   1.450       .  S
C1827      C1828   1.411       .  A
C1828      C1831   1.450       .  S
C1829      C1832   1.408       .  A
C1829      C1836   1.407       .  A
C1830      N1847   1.157       .  T
C1831      N1849   1.157       .  T
C1832      C1833   1.412       .  A
C1832      C1837   1.453       .  S
C1833      C1834   1.426       .  A
C1833      C1839   1.451       .  S
C1834      C1835   1.425       .  A
C1835      C1836   1.413       .  A
C1835      C1838   1.452       .  S
C1836      C1840   1.451       .  S
C1837      N1844   1.157       .  T
C1838      N1845   1.158       .  T
C1839      N1843   1.158       .  T
C1840      N1846   1.157       .  T
C1841      N1850   1.156       .  T
C1842      N1848   1.157       .  T
C1851      C1852   1.407       .  A
C1851      C1856   1.407       .  A
C1851      C1869   1.452       .  S
C1852      C1857   1.488       .  S
C1852      C1853   1.408       .  A
C1853      C1854   1.409       .  A
C1853      C1858   1.452       .  S
C1854      C1855   1.418       .  A
C1854      C1870   1.450       .  S
C1855      C1856   1.422       .  A
C1856      C1859   1.452       .  S
C1857      C1860   1.411       .  A
C1857      C1864   1.408       .  A
C1858      N1875   1.157       .  T
C1859      N1877   1.158       .  T
C1860      C1861   1.410       .  A
C1860      C1865   1.450       .  S
C1861      C1862   1.411       .  A
C1861      C1867   1.450       .  S
C1862      C1863   1.411       .  A
C1863      C1864   1.404       .  A
C1863      C1866   1.448       .  S
C1864      C1868   1.451       .  S
C1865      N1872   1.157       .  T
C1866      N1873   1.155       .  T
C1867      N1871   1.157       .  T
C1868      N1874   1.157       .  T
C1869      N1878   1.157       .  T
C1870      N1876   1.157       .  T
C1879      C1880   1.405       .  A
C1879      C1884   1.411       .  A
C1879      C1897   1.453       .  S
C1880      C1885   1.498       .  S
C1880      C1881   1.407       .  A
C1881      C1882   1.413       .  A
C1881      C1886   1.451       .  S
C1882      C1883   1.429       .  A
C1882      C1898   1.452       .  S
C1883      C1884   1.431       .  A
C1884      C1887   1.453       .  S
C1885      C1888   1.411       .  A
C1885      C1892   1.412       .  A
C1887      N1905   1.158       .  T
C1888      C1889   1.408       .  A
C1888      C1893   1.446       .  S
C1889      C1890   1.411       .  A
C1889      C1895   1.452       .  S
C1890      C1891   1.411       .  A
C1891      C1892   1.411       .  A
C1891      C1894   1.450       .  S
C1892      C1896   1.450       .  S
C1893      N1900   1.155       .  T
C1894      N1901   1.157       .  T
C1895      N1899   1.158       .  T
C1896      N1902   1.157       .  T
C1897      N1906   1.157       .  T
C1907      C1908   1.411       .  A
C1907      C1912   1.410       .  A
C1907      C1925   1.450       .  S
C1908      C1913   1.491       .  S
C1908      C1909   1.410       .  A
C1909      C1910   1.406       .  A
C1909      C1914   1.449       .  S
C1910      C1911   1.409       .  A
C1910      C1926   1.452       .  S
C1911      C1912   1.410       .  A
C1912      C1915   1.450       .  S
C1913      C1916   1.408       .  A
C1913      C1920   1.407       .  A
C1914      N1931   1.157       .  T
C1915      N1933   1.157       .  T
C1916      C1917   1.409       .  A
C1916      C1921   1.453       .  S
C1917      C1918   1.423       .  A
C1917      C1923   1.452       .  S
C1918      C1919   1.421       .  A
C1919      C1920   1.409       .  A
C1919      C1922   1.452       .  S
C1920      C1924   1.451       .  S
C1922      N1929   1.158       .  T
C1924      N1930   1.157       .  T
C1925      N1934   1.157       .  T
C1926      N1932   1.157       .  T
C1935      C1936   1.406       .  A
C1935      C1940   1.410       .  A
C1935      C1953   1.451       .  S
C1936      C1941   1.491       .  S
C1936      C1937   1.405       .  A
C1937      C1938   1.410       .  A
C1937      C1942   1.453       .  S
C1938      C1939   1.428       .  A
C1938      C1954   1.452       .  S
C1939      C1940   1.424       .  A
C1940      C1943   1.452       .  S
C1941      C1944   1.409       .  A
C1941      C1948   1.409       .  A
C1942      N1959   1.158       .  T
C1943      N1961   1.158       .  T
C1944      C1945   1.410       .  A
C1944      C1949   1.450       .  S
C1945      C1946   1.417       .  A
C1945      C1951   1.451       .  S
C1946      C1947   1.418       .  A
C1947      C1948   1.407       .  A
C1947      C1950   1.451       .  S
C1948      C1952   1.453       .  S
C1949      N1956   1.157       .  T
C1950      N1957   1.157       .  T
C1951      N1955   1.157       .  T
C1952      N1958   1.157       .  T
C1953      N1962   1.157       .  T
C1954      N1960   1.158       .  T
C1963      N1964   1.362       .  A
C1963      N1968   1.363       .  A
C1963      C2266   1.504       .  S
N1964      C1965   1.355       .  A
C1965      N1966   1.347       .  A
C1965      C2101   1.455       .  S
N1966      C1967   1.349       .  A
C1967      N1968   1.354       .  A
C1967      C2062   1.447       .  S
C1969      N1970   1.357       .  A
C1969      N1974   1.362       .  A
C1969      C2273   1.475       .  S
N1970      C1971   1.351       .  A
C1971      N1972   1.363       .  A
C1971      C2043   1.473       .  S
N1972      C1973   1.366       .  A
C1973      N1974   1.358       .  A
C1973      C2120   1.476       .  S
C1975      N1976   1.369       .  A
C1975      N1980   1.361       .  A
C1975      C2245   1.502       .  S
N1976      C1977   1.361       .  A
C1977      N1978   1.355       .  A
C1977      C2118   1.473       .  S
N1978      C1979   1.354       .  A
C1979      N1980   1.350       .  A
C1979      C2091   1.460       .  S
C1981      N1982   1.360       .  A
C1981      N1986   1.360       .  A
C1981      C2238   1.471       .  S
N1982      C1983   1.356       .  A
C1983      N1984   1.349       .  A
C1983      C2072   1.454       .  S
N1984      C1985   1.350       .  A
C1985      N1986   1.356       .  A
C1985      C2104   1.447       .  S
C1987      N1988   1.370       .  A
C1987      N1992   1.363       .  A
C1987      C2210   1.509       .  S
N1988      C1989   1.364       .  A
C1989      N1990   1.349       .  A
C1989      C2075   1.457       .  S
N1990      C1991   1.346       .  A
C1991      N1992   1.356       .  A
C1991      C2060   1.457       .  S
C1993      N1994   1.368       .  A
C1993      N1998   1.366       .  A
C1993      C2217   1.492       .  S
N1994      C1995   1.360       .  A
C1995      N1996   1.361       .  A
C1995      C2046   1.479       .  S
N1996      C1997   1.358       .  A
C1997      N1998   1.358       .  A
C1997      C2089   1.480       .  S
C1999      N2000   1.364       .  A
C1999      N2004   1.363       .  A
C1999      C2182   1.518       .  S
N2000      C2001   1.357       .  A
C2001      N2002   1.364       .  A
C2001      C2119   1.474       .  S
N2002      C2003   1.358       .  A
C2003      N2004   1.356       .  A
C2003      C2092   1.481       .  S
C2005      N2006   1.365       .  A
C2005      N2010   1.365       .  A
C2005      C2189   1.473       .  S
N2006      C2007   1.358       .  A
C2007      N2008   1.341       .  A
C2007      C2073   1.450       .  S
N2008      C2009   1.337       .  A
C2009      N2010   1.356       .  A
C2009      C2103   1.451       .  S
C2011      N2012   1.367       .  A
C2011      N2016   1.363       .  A
C2011      C2161   1.500       .  S
N2012      C2013   1.361       .  A
C2013      N2014   1.349       .  A
C2013      C2074   1.470       .  S
N2014      C2015   1.352       .  A
C2015      N2016   1.357       .  A
C2015      C2061   1.450       .  S
C2017      N2018   1.363       .  A
C2017      N2022   1.362       .  A
C2017      C2154   1.483       .  S
N2018      C2019   1.357       .  A
C2019      N2020   1.357       .  A
C2019      C2045   1.471       .  S
N2020      C2021   1.358       .  A
C2021      N2022   1.357       .  A
C2021      C2090   1.465       .  S
C2023      N2024   1.365       .  A
C2023      N2028   1.364       .  A
C2023      C2126   1.501       .  S
N2024      C2025   1.355       .  A
C2025      N2026   1.364       .  A
C2025      C2044   1.482       .  S
N2026      C2027   1.364       .  A
C2027      N2028   1.355       .  A
C2027      C2121   1.482       .  S
C2029      N2030   1.357       .  A
C2029      N2034   1.359       .  A
C2029      C2133   1.470       .  S
N2030      C2031   1.353       .  A
C2031      N2032   1.350       .  A
C2031      C2102   1.438       .  S
N2032      C2033   1.347       .  A
C2033      N2034   1.355       .  A
C2033      C2063   1.449       .  S
O2035      C2043   1.274       .  A
O2035     Co2382   1.915       .  S
O2036      C2044   1.261       .  A
O2036     Co2383   1.985       .  S
O2037      C2045   1.299       .  A
O2037     Co2384   2.073       .  S
O2038      C2046   1.271       .  A
O2038     Co2385   2.023       .  S
O2039      C2045   1.273       .  A
O2039     Co2383   1.907       .  S
O2040      C2046   1.264       .  A
O2040     Co2382   1.990       .  S
O2041      C2044   1.272       .  A
O2041     Co2385   2.035       .  S
O2042      C2043   1.299       .  A
O2042     Co2384   2.068       .  S
O2047      C2060   1.268       .  A
O2047     Co2055   2.002       .  S
O2048      C2061   1.236       .  A
O2048     Co2056   1.954       .  S
O2049      C2062   1.253       .  A
O2049     Co2057   1.997       .  S
O2050      C2063   1.256       .  A
O2050     Co2058   1.972       .  S
O2051      C2063   1.267       .  A
O2051     Co2056   2.004       .  S
O2052      C2062   1.238       .  A
O2052     Co2055   1.956       .  S
O2053      C2060   1.259       .  A
O2053     Co2058   1.980       .  S
O2054      C2061   1.253       .  A
O2054     Co2057   2.011       .  S
Co2055     O2362   1.914       .  S
Co2055     O2367   1.990   1_554  S
Co2055     O2059   1.917       .  S
Co2056     O2363   1.985   1_554  S
Co2056     O2366   1.907       .  S
Co2056     O2059   1.905       .  S
Co2057     O2364   2.073   1_554  S
Co2057     O2369   2.068   1_554  S
Co2057     O2059   2.270       .  S
Co2058     O2365   2.023       .  S
Co2058     O2368   2.035       .  S
Co2058     O2059   2.070       .  S
O2064      C2072   1.263       .  A
O2064     Co2084   2.003       .  S
O2065      C2073   1.277       .  A
O2065     Co2085   1.989       .  S
O2066      C2074   1.257       .  A
O2066     Co2086   1.963       .  S
O2067     Co2087   1.899       .  S
O2068      C2074   1.277       .  A
O2068     Co2085   2.043       .  S
O2069      C2075   1.291       .  A
O2069     Co2084   2.096       .  S
O2070      C2073   1.265       .  A
O2070     Co2087   1.974       .  S
O2071     Co2086   1.971   1_455  S
O2076      C2089   1.264       .  A
O2076     Co2411   1.894       .  S
O2077      C2090   1.255       .  A
O2077     Co2412   1.957       .  S
O2078     Co2413   2.027   1_455  S
O2079      C2092   1.268       .  A
O2079     Co2414   2.035       .  S
O2080      C2092   1.260       .  A
O2080     Co2412   1.982       .  S
O2081      C2091   1.269       .  A
O2081     Co2411   1.970       .  S
O2082     Co2414   2.136   1_455  S
O2083      C2090   1.275       .  A
O2083     Co2413   2.042       .  S
Co2084     O2403   1.894       .  S
Co2084     O2408   1.970   1_554  S
Co2085     O2404   1.957   1_554  S
Co2085     O2407   1.982   1_554  S
Co2085     O2088   2.007       .  S
Co2086     O2405   2.027   1_655  S
Co2086     O2410   2.042       .  S
Co2086     O2088   2.031       .  S
Co2087     O2406   2.035       .  S
Co2087     O2409   2.136   1_655  S
Co2087     O2088   2.015       .  S
O2093      C2101   1.266       .  A
O2093     Co2113   2.003       .  S
O2094      C2102   1.235       .  A
O2094     Co2114   1.949       .  S
O2095      C2103   1.260       .  A
O2096      C2104   1.254       .  A
O2096     Co2116   2.010       .  S
O2097      C2103   1.268       .  A
O2097     Co2114   1.979       .  S
O2098      C2104   1.236       .  A
O2098     Co2113   1.949       .  S
O2099      C2102   1.248       .  A
O2100      C2101   1.259       .  A
O2100     Co2115   1.977       .  S
O2105      C2118   1.272       .  A
O2105     Co2440   1.903       .  S
O2106      C2119   1.269       .  A
O2106     Co2441   1.996       .  S
O2107      C2120   1.274       .  A
O2107     Co2442   2.041       .  S
O2108      C2121   1.304       .  A
O2109      C2121   1.270       .  A
O2109     Co2441   1.903       .  S
O2110      C2120   1.260       .  A
O2110     Co2440   1.976       .  S
O2111      C2118   1.299       .  A
O2111     Co2443   2.078       .  S
O2112      C2119   1.267       .  A
Co2113     O2432   1.903       .  S
Co2113     O2437   1.976   1_554  S
Co2113     O2117   1.890       .  S
Co2114     O2433   1.996   1_554  S
Co2114     O2436   1.903       .  S
Co2115     O2434   2.041       .  S
Co2115     O2117   2.075       .  S
Co2116     O2438   2.078   1_554  S
Co2116     O2117   2.281       .  S
C2122      C2123   1.406       .  A
C2122      C2127   1.408       .  A
C2122      C2140   1.453       .  S
C2123      C2128   1.488       .  S
C2123      C2124   1.406       .  A
C2124      C2125   1.410       .  A
C2124      C2129   1.453       .  S
C2125      C2126   1.426       .  A
C2125      C2141   1.452       .  S
C2126      C2127   1.424       .  A
C2127      C2130   1.451       .  S
C2128      C2131   1.411       .  A
C2128      C2135   1.412       .  A
C2129      N2146   1.157       .  T
C2130      N2148   1.157       .  T
C2131      C2132   1.405       .  A
C2131      C2136   1.450       .  S
C2132      C2133   1.411       .  A
C2132      C2138   1.451       .  S
C2133      C2134   1.410       .  A
C2134      C2135   1.407       .  A
C2134      C2137   1.451       .  S
C2135      C2139   1.450       .  S
C2136      N2143   1.157       .  T
C2137      N2144   1.157       .  T
C2138      N2142   1.157       .  T
C2140      N2149   1.157       .  T
C2141      N2147   1.158       .  T
C2150      C2151   1.413       .  A
C2150      C2155   1.410       .  A
C2150      C2168   1.451       .  S
C2151      C2156   1.500       .  S
C2151      C2152   1.412       .  A
C2152      C2153   1.410       .  A
C2152      C2157   1.450       .  S
C2153      C2154   1.413       .  A
C2153      C2169   1.452       .  S
C2154      C2155   1.415       .  A
C2155      C2158   1.452       .  S
C2156      C2159   1.411       .  A
C2156      C2163   1.409       .  A
C2157      N2174   1.157       .  T
C2158      N2176   1.158       .  T
C2159      C2160   1.412       .  A
C2159      C2164   1.453       .  S
C2160      C2161   1.422       .  A
C2160      C2166   1.451       .  S
C2161      C2162   1.420       .  A
C2162      C2163   1.411       .  A
C2162      C2165   1.451       .  S
C2163      C2167   1.451       .  S
C2164      N2171   1.158       .  T
C2165      N2172   1.157       .  T
C2166      N2170   1.158       .  T
C2167      N2173   1.157       .  T
C2168      N2177   1.157       .  T
C2169      N2175   1.157       .  T
C2178      C2179   1.405       .  A
C2178      C2183   1.409       .  A
C2178      C2196   1.455       .  S
C2179      C2184   1.492       .  S
C2179      C2180   1.404       .  A
C2180      C2181   1.412       .  A
C2180      C2185   1.452       .  S
C2181      C2182   1.432       .  A
C2181      C2197   1.452       .  S
C2182      C2183   1.433       .  A
C2183      C2186   1.453       .  S
C2184      C2187   1.412       .  A
C2184      C2191   1.409       .  A
C2185      N2202   1.157       .  T
C2186      N2204   1.158       .  T
C2187      C2188   1.410       .  A
C2187      C2192   1.449       .  S
C2188      C2189   1.411       .  A
C2188      C2194   1.451       .  S
C2189      C2190   1.410       .  A
C2190      C2191   1.405       .  A
C2190      C2193   1.449       .  S
C2191      C2195   1.452       .  S
C2192      N2199   1.157       .  T
C2193      N2200   1.157       .  T
C2194      N2198   1.157       .  T
C2195      N2201   1.157       .  T
C2196      N2205   1.158       .  T
C2197      N2203   1.158       .  T
C2206      C2207   1.406       .  A
C2206      C2211   1.411       .  A
C2206      C2224   1.452       .  S
C2207      C2212   1.502       .  S
C2207      C2208   1.408       .  A
C2208      C2209   1.416       .  A
C2208      C2213   1.448       .  S
C2209      C2210   1.422       .  A
C2209      C2225   1.449       .  S
C2210      C2211   1.426       .  A
C2211      C2214   1.452       .  S
C2212      C2215   1.412       .  A
C2212      C2219   1.411       .  A
C2214      N2232   1.158       .  T
C2215      C2216   1.411       .  A
C2215      C2220   1.451       .  S
C2216      C2217   1.415       .  A
C2216      C2222   1.451       .  S
C2217      C2218   1.415       .  A
C2218      C2219   1.415       .  A
C2218      C2221   1.450       .  S
C2219      C2223   1.449       .  S
C2220      N2227   1.157       .  T
C2221      N2228   1.157       .  T
C2222      N2226   1.157       .  T
C2223      N2229   1.157       .  T
C2224      N2233   1.157       .  T
C2234      C2235   1.410       .  A
C2234      C2239   1.410       .  A
C2234      C2252   1.449       .  S
C2235      C2240   1.491       .  S
C2235      C2236   1.410       .  A
C2236      C2237   1.405       .  A
C2236      C2241   1.448       .  S
C2237      C2238   1.410       .  A
C2237      C2253   1.452       .  S
C2238      C2239   1.411       .  A
C2239      C2242   1.450       .  S
C2240      C2243   1.405       .  A
C2240      C2247   1.406       .  A
C2241      N2258   1.156       .  T
C2242      N2260   1.157       .  T
C2243      C2244   1.408       .  A
C2243      C2248   1.454       .  S
C2244      C2245   1.428       .  A
C2244      C2250   1.453       .  S
C2245      C2246   1.423       .  A
C2246      C2247   1.411       .  A
C2246      C2249   1.452       .  S
C2247      C2251   1.450       .  S
C2249      N2256   1.158       .  T
C2251      N2257   1.157       .  T
C2252      N2261   1.157       .  T
C2253      N2259   1.157       .  T
C2262      C2263   1.404       .  A
C2262      C2267   1.408       .  A
C2262      C2280   1.451       .  S
C2263      C2268   1.487       .  S
C2263      C2264   1.404       .  A
C2264      C2265   1.408       .  A
C2264      C2269   1.454       .  S
C2265      C2266   1.429       .  A
C2265      C2281   1.452       .  S
C2266      C2267   1.426       .  A
C2267      C2270   1.452       .  S
C2268      C2271   1.410       .  A
C2268      C2275   1.408       .  A
C2269      N2286   1.157       .  T
C2270      N2288   1.158       .  T
C2271      C2272   1.408       .  A
C2271      C2276   1.450       .  S
C2272      C2273   1.411       .  A
C2272      C2278   1.450       .  S
C2273      C2274   1.414       .  A
C2274      C2275   1.404       .  A
C2274      C2277   1.451       .  S
C2275      C2279   1.449       .  S
C2276      N2283   1.157       .  T
C2277      N2284   1.157       .  T
C2278      N2282   1.157       .  T
C2279      N2285   1.156       .  T
C2280      N2289   1.157       .  T
C2281      N2287   1.158       .  T
C2290      N2291   1.362       .  A
C2290      N2295   1.363       .  A
C2290      C2593   1.504       .  S
N2291      C2292   1.355       .  A
C2292      N2293   1.347       .  A
C2292      C2428   1.455       .  S
N2293      C2294   1.349       .  A
C2294      N2295   1.354       .  A
C2294      C2389   1.447       .  S
C2296      N2297   1.357       .  A
C2296      N2301   1.362       .  A
C2296      C2600   1.475       .  S
N2297      C2298   1.351       .  A
C2298      N2299   1.363       .  A
C2298      C2370   1.473       .  S
N2299      C2300   1.366       .  A
C2300      N2301   1.358       .  A
C2300      C2447   1.476       .  S
C2302      N2303   1.369       .  A
C2302      N2307   1.361       .  A
C2302      C2572   1.502       .  S
N2303      C2304   1.361       .  A
C2304      N2305   1.355       .  A
C2304      C2445   1.473       .  S
N2305      C2306   1.354       .  A
C2306      N2307   1.350       .  A
C2306      C2418   1.459       .  S
C2308      N2309   1.359       .  A
C2308      N2313   1.360       .  A
C2308      C2565   1.471       .  S
N2309      C2310   1.356       .  A
C2310      N2311   1.349       .  A
C2310      C2399   1.454       .  S
N2311      C2312   1.350       .  A
C2312      N2313   1.357       .  A
C2312      C2431   1.447       .  S
C2314      N2315   1.370       .  A
C2314      N2319   1.363       .  A
C2314      C2537   1.509       .  S
N2315      C2316   1.364       .  A
C2316      N2317   1.349       .  A
C2316      C2402   1.457       .  S
N2317      C2318   1.346       .  A
C2318      N2319   1.356       .  A
C2318      C2387   1.457       .  S
C2320      N2321   1.368       .  A
C2320      N2325   1.366       .  A
C2320      C2544   1.492       .  S
N2321      C2322   1.360       .  A
C2322      N2323   1.361       .  A
C2322      C2373   1.479       .  S
N2323      C2324   1.358       .  A
C2324      N2325   1.358       .  A
C2324      C2416   1.480       .  S
C2326      N2327   1.364       .  A
C2326      N2331   1.363       .  A
C2326      C2509   1.518       .  S
N2327      C2328   1.357       .  A
C2328      N2329   1.364       .  A
C2328      C2446   1.474       .  S
N2329      C2330   1.358       .  A
C2330      N2331   1.356       .  A
C2330      C2419   1.481       .  S
C2332      N2333   1.365       .  A
C2332      N2337   1.365       .  A
C2332      C2516   1.473       .  S
N2333      C2334   1.358       .  A
C2334      N2335   1.341       .  A
C2334      C2400   1.450       .  S
N2335      C2336   1.337       .  A
C2336      N2337   1.356       .  A
C2336      C2430   1.451       .  S
C2338      N2339   1.367       .  A
C2338      N2343   1.363       .  A
C2338      C2488   1.501       .  S
N2339      C2340   1.361       .  A
C2340      N2341   1.349       .  A
C2340      C2401   1.470       .  S
N2341      C2342   1.352       .  A
C2342      N2343   1.357       .  A
C2342      C2388   1.450       .  S
C2344      N2345   1.363       .  A
C2344      N2349   1.362       .  A
C2344      C2481   1.483       .  S
N2345      C2346   1.357       .  A
C2346      N2347   1.357       .  A
C2346      C2372   1.471       .  S
N2347      C2348   1.358       .  A
C2348      N2349   1.357       .  A
C2348      C2417   1.465       .  S
C2350      N2351   1.365       .  A
C2350      N2355   1.364       .  A
C2350      C2453   1.501       .  S
N2351      C2352   1.355       .  A
C2352      N2353   1.364       .  A
C2352      C2371   1.482       .  S
N2353      C2354   1.364       .  A
C2354      N2355   1.355       .  A
C2354      C2448   1.482       .  S
C2356      N2357   1.357       .  A
C2356      N2361   1.359       .  A
C2356      C2460   1.470       .  S
N2357      C2358   1.353       .  A
C2358      N2359   1.350       .  A
C2358      C2429   1.438       .  S
N2359      C2360   1.347       .  A
C2360      N2361   1.355       .  A
C2360      C2390   1.449       .  S
O2362      C2370   1.274   1_554  A
O2363      C2371   1.261       .  A
O2364      C2372   1.299       .  A
O2365      C2373   1.271   1_554  A
O2366      C2372   1.273   1_554  A
O2367      C2373   1.264       .  A
O2368      C2371   1.272   1_554  A
O2369      C2370   1.299       .  A
O2374      C2387   1.268       .  A
O2374     Co2382   2.002       .  S
O2375      C2388   1.236       .  A
O2375     Co2383   1.954       .  S
O2376      C2389   1.253       .  A
O2376     Co2384   1.997       .  S
O2377      C2390   1.256       .  A
O2377     Co2385   1.972       .  S
O2378      C2390   1.267       .  A
O2378     Co2383   2.004       .  S
O2379      C2389   1.238       .  A
O2379     Co2382   1.956       .  S
O2380      C2387   1.259       .  A
O2380     Co2385   1.980       .  S
O2381      C2388   1.253       .  A
O2381     Co2384   2.011       .  S
Co2382     O2386   1.917       .  S
Co2383     O2386   1.905       .  S
Co2384     O2386   2.270       .  S
Co2385     O2386   2.070       .  S
O2391      C2399   1.263       .  A
O2391     Co2411   2.003       .  S
O2392      C2400   1.277       .  A
O2392     Co2412   1.989       .  S
O2393      C2401   1.257       .  A
O2393     Co2413   1.963       .  S
O2394     Co2414   1.899       .  S
O2395      C2401   1.277       .  A
O2395     Co2412   2.043       .  S
O2396      C2402   1.291       .  A
O2396     Co2411   2.096       .  S
O2397      C2400   1.265       .  A
O2397     Co2414   1.974       .  S
O2398     Co2413   1.971   1_455  S
O2403      C2416   1.264   1_554  A
O2404      C2417   1.255       .  A
O2406      C2419   1.268   1_554  A
O2407      C2419   1.260       .  A
O2408      C2418   1.269       .  A
O2410      C2417   1.275   1_554  A
Co2412     O2415   2.007       .  S
Co2413     O2415   2.031       .  S
Co2414     O2415   2.015       .  S
O2420      C2428   1.266       .  A
O2420     Co2440   2.003       .  S
O2421      C2429   1.235       .  A
O2421     Co2441   1.949       .  S
O2422      C2430   1.260       .  A
O2423      C2431   1.254       .  A
O2423     Co2443   2.010       .  S
O2424      C2430   1.268       .  A
O2424     Co2441   1.979       .  S
O2425      C2431   1.236       .  A
O2425     Co2440   1.949       .  S
O2426      C2429   1.248       .  A
O2427      C2428   1.259       .  A
O2427     Co2442   1.978       .  S
O2432      C2445   1.271   1_554  A
O2433      C2446   1.269       .  A
O2434      C2447   1.274   1_554  A
O2435      C2448   1.304       .  A
O2436      C2448   1.270   1_554  A
O2437      C2447   1.260       .  A
O2438      C2445   1.299       .  A
O2439      C2446   1.267   1_554  A
Co2440     O2444   1.890       .  S
Co2442     O2444   2.075       .  S
Co2443     O2444   2.281       .  S
C2449      C2450   1.406       .  A
C2449      C2454   1.408       .  A
C2449      C2467   1.453       .  S
C2450      C2455   1.488       .  S
C2450      C2451   1.406       .  A
C2451      C2452   1.410       .  A
C2451      C2456   1.453       .  S
C2452      C2453   1.426       .  A
C2452      C2468   1.452       .  S
C2453      C2454   1.424       .  A
C2454      C2457   1.451       .  S
C2455      C2458   1.411       .  A
C2455      C2462   1.412       .  A
C2456      N2473   1.157       .  T
C2457      N2475   1.157       .  T
C2458      C2459   1.405       .  A
C2458      C2463   1.450       .  S
C2459      C2460   1.411       .  A
C2459      C2465   1.451       .  S
C2460      C2461   1.410       .  A
C2461      C2462   1.407       .  A
C2461      C2464   1.451       .  S
C2462      C2466   1.450       .  S
C2463      N2470   1.157       .  T
C2464      N2471   1.157       .  T
C2465      N2469   1.157       .  T
C2467      N2476   1.157       .  T
C2468      N2474   1.158       .  T
C2477      C2478   1.413       .  A
C2477      C2482   1.410       .  A
C2477      C2495   1.451       .  S
C2478      C2483   1.500       .  S
C2478      C2479   1.412       .  A
C2479      C2480   1.410       .  A
C2479      C2484   1.449       .  S
C2480      C2481   1.413       .  A
C2480      C2496   1.452       .  S
C2481      C2482   1.415       .  A
C2482      C2485   1.452       .  S
C2483      C2486   1.411       .  A
C2483      C2490   1.409       .  A
C2484      N2501   1.157       .  T
C2485      N2503   1.158       .  T
C2486      C2487   1.412       .  A
C2486      C2491   1.453       .  S
C2487      C2488   1.422       .  A
C2487      C2493   1.451       .  S
C2488      C2489   1.420       .  A
C2489      C2490   1.411       .  A
C2489      C2492   1.451       .  S
C2490      C2494   1.451       .  S
C2491      N2498   1.158       .  T
C2492      N2499   1.157       .  T
C2493      N2497   1.158       .  T
C2494      N2500   1.157       .  T
C2495      N2504   1.157       .  T
C2496      N2502   1.157       .  T
C2505      C2506   1.405       .  A
C2505      C2510   1.409       .  A
C2505      C2523   1.455       .  S
C2506      C2511   1.492       .  S
C2506      C2507   1.404       .  A
C2507      C2508   1.412       .  A
C2507      C2512   1.452       .  S
C2508      C2509   1.432       .  A
C2508      C2524   1.452       .  S
C2509      C2510   1.433       .  A
C2510      C2513   1.453       .  S
C2511      C2514   1.412       .  A
C2511      C2518   1.409       .  A
C2512      N2529   1.157       .  T
C2513      N2531   1.158       .  T
C2514      C2515   1.410       .  A
C2514      C2519   1.449       .  S
C2515      C2516   1.411       .  A
C2515      C2521   1.451       .  S
C2516      C2517   1.410       .  A
C2517      C2518   1.405       .  A
C2517      C2520   1.449       .  S
C2518      C2522   1.452       .  S
C2519      N2526   1.157       .  T
C2520      N2527   1.157       .  T
C2521      N2525   1.157       .  T
C2522      N2528   1.157       .  T
C2523      N2532   1.158       .  T
C2524      N2530   1.158       .  T
C2533      C2534   1.406       .  A
C2533      C2538   1.411       .  A
C2533      C2551   1.452       .  S
C2534      C2539   1.502       .  S
C2534      C2535   1.408       .  A
C2535      C2536   1.416       .  A
C2535      C2540   1.448       .  S
C2536      C2537   1.422       .  A
C2536      C2552   1.449       .  S
C2537      C2538   1.427       .  A
C2538      C2541   1.452       .  S
C2539      C2542   1.412       .  A
C2539      C2546   1.411       .  A
C2541      N2559   1.158       .  T
C2542      C2543   1.411       .  A
C2542      C2547   1.451       .  S
C2543      C2544   1.415       .  A
C2543      C2549   1.451       .  S
C2544      C2545   1.415       .  A
C2545      C2546   1.415       .  A
C2545      C2548   1.450       .  S
C2546      C2550   1.449       .  S
C2547      N2554   1.157       .  T
C2548      N2555   1.157       .  T
C2549      N2553   1.157       .  T
C2550      N2556   1.157       .  T
C2551      N2560   1.157       .  T
C2561      C2562   1.410       .  A
C2561      C2566   1.410       .  A
C2561      C2579   1.449       .  S
C2562      C2567   1.491       .  S
C2562      C2563   1.410       .  A
C2563      C2564   1.405       .  A
C2563      C2568   1.448       .  S
C2564      C2565   1.410       .  A
C2564      C2580   1.452       .  S
C2565      C2566   1.411       .  A
C2566      C2569   1.450       .  S
C2567      C2570   1.405       .  A
C2567      C2574   1.406       .  A
C2568      N2585   1.156       .  T
C2569      N2587   1.157       .  T
C2570      C2571   1.408       .  A
C2570      C2575   1.454       .  S
C2571      C2572   1.428       .  A
C2571      C2577   1.453       .  S
C2572      C2573   1.423       .  A
C2573      C2574   1.411       .  A
C2573      C2576   1.452       .  S
C2574      C2578   1.450       .  S
C2576      N2583   1.158       .  T
C2578      N2584   1.157       .  T
C2579      N2588   1.157       .  T
C2580      N2586   1.157       .  T
C2589      C2590   1.404       .  A
C2589      C2594   1.408       .  A
C2589      C2607   1.451       .  S
C2590      C2595   1.487       .  S
C2590      C2591   1.404       .  A
C2591      C2592   1.408       .  A
C2591      C2596   1.454       .  S
C2592      C2593   1.429       .  A
C2592      C2608   1.452       .  S
C2593      C2594   1.426       .  A
C2594      C2597   1.452       .  S
C2595      C2598   1.410       .  A
C2595      C2602   1.408       .  A
C2596      N2613   1.157       .  T
C2597      N2615   1.158       .  T
C2598      C2599   1.408       .  A
C2598      C2603   1.450       .  S
C2599      C2600   1.411       .  A
C2599      C2605   1.450       .  S
C2600      C2601   1.414       .  A
C2601      C2602   1.404       .  A
C2601      C2604   1.451       .  S
C2602      C2606   1.449       .  S
C2603      N2610   1.157       .  T
C2604      N2611   1.157       .  T
C2605      N2609   1.157       .  T
C2606      N2612   1.156       .  T
C2607      N2616   1.157       .  T
C2608      N2614   1.158       .  T
