geometry optimzed in LAMMPS
_audit_creation_date              2020-11-30 
_audit_creation_method            'lammps2cif' 
_symmetry_space_group_name_H-M    'P1' 
_symmetry_Int_Tables_number       1 
_symmetry_cell_setting            triclinic 
loop_ 
_symmetry_equiv_pos_as_xyz 
  x,y,z 
_cell_length_a                    74.81397494156792 
_cell_length_b                    74.74760890497629 
_cell_length_c                    74.67465372305035 
_cell_angle_alpha                 89.91799021327363 
_cell_angle_beta                  90.04919374125798 
_cell_angle_gamma                 89.89966557884381 
loop_ 
_atom_site_label 
_atom_site_type_symbol 
_atom_site_fract_x 
_atom_site_fract_y 
_atom_site_fract_z 
_atom_site_charge 
C1          C  0.63394600  0.61598369  0.63843349     0.03070
C2          C  0.61841373  0.62336319  0.64597995    -0.13080
C3          C  0.61051522  0.63869136  0.63857265     0.00570
C4          C  0.61828886  0.64674530  0.62353717    -0.11600
C5          C  0.63398584  0.63971782  0.61612216     0.03070
C6          C  0.64201286  0.62464872  0.62388066    -0.11020
H7          H  0.61225006  0.61700902  0.65746625     0.08660
H8          H  0.61197710  0.65831006  0.61742621     0.06190
H9          H  0.65423224  0.61935419  0.61818190     0.06040
C10         C  0.36874854  0.63782269  0.63801409     0.03070
C11         C  0.36163280  0.62208719  0.64547792    -0.13080
C12         C  0.34532235  0.61506846  0.63921549     0.00570
C13         C  0.33669989  0.62371155  0.62481592    -0.11600
C14         C  0.34439239  0.63862516  0.61644739     0.03070
C15         C  0.36018439  0.64585554  0.62337113    -0.11020
H16         H  0.36903348  0.61520926  0.65587924     0.08660
H17         H  0.32411066  0.61862264  0.61978203     0.06190
H18         H  0.36599415  0.65760414  0.61716049     0.06040
N19         N  0.45307463  0.68525360  0.68072636    -0.27340
N20         N  0.46261877  0.67427244  0.67071615    -0.35200
C21         C  0.45160113  0.66432978  0.66063641     0.01000
C22         C  0.43419889  0.66946761  0.66421769     0.07020
C23         C  0.43564958  0.68264575  0.67719468    -0.06080
H24         H  0.45600855  0.65376412  0.65180111     0.07690
H25         H  0.42483575  0.68972667  0.68369894     0.08890
Cu26       Cu  0.49009894  0.67308874  0.67120967     0.44170
Cu27       Cu  0.46440878  0.70260521  0.69913168     0.41990
Cu28       Cu  0.51327628  0.70057335  0.70291675     0.43880
N29         N  0.51751654  0.67408372  0.67312988    -0.34730
N30         N  0.52623500  0.68395851  0.68487923    -0.28990
C31         C  0.54390266  0.68134563  0.68268294    -0.05090
C32         C  0.54634852  0.66940686  0.66868088     0.07130
C33         C  0.52928896  0.66502076  0.66309310     0.00930
H34         H  0.55410223  0.68740566  0.69093819     0.08580
H35         H  0.52565599  0.65591712  0.65244894     0.07660
N36         N  0.49693374  0.71681577  0.71838500    -0.36180
N37         N  0.47932574  0.71774148  0.71692669    -0.28360
C38         C  0.47306850  0.72973045  0.72881063    -0.03600
C39         C  0.48742227  0.73660864  0.73818499     0.05010
C40         C  0.50231874  0.72814130  0.73124381     0.03100
H41         H  0.45910638  0.73310002  0.73052668     0.08210
H42         H  0.51609819  0.73008799  0.73517604     0.07040
N43         N  0.51895401  0.81519412  0.81358057    -0.27340
N44         N  0.52617914  0.80140490  0.80526356    -0.35200
C45         C  0.54403942  0.80233673  0.80651001     0.01000
C46         C  0.54848753  0.81776896  0.81569670     0.07020
C47         C  0.53215799  0.82547201  0.82018216    -0.06080
H48         H  0.55298026  0.79221559  0.80137230     0.07690
H49         H  0.53001808  0.83765303  0.82769078     0.08890
Cu50       Cu  0.51168020  0.78277231  0.79122823     0.44170
Cu51       Cu  0.49138999  0.81852861  0.81562494     0.41990
Cu52       Cu  0.46427224  0.78948715  0.78667315     0.43880
N53         N  0.49598351  0.76840157  0.77383038    -0.34730
N54         N  0.47860405  0.77084880  0.77178439    -0.28990
C55         C  0.47269493  0.75976214  0.75887043    -0.05090
C56         C  0.48714531  0.75004528  0.75251925     0.07130
C57         C  0.50165108  0.75588303  0.76229660     0.00930
H58         H  0.45898554  0.75900144  0.75432136     0.08580
H59         H  0.51539027  0.75153370  0.76102356     0.07660
N60         N  0.45377681  0.80769020  0.80493314    -0.36180
N61         N  0.46354536  0.81772703  0.81572342    -0.28360
C62         C  0.45257216  0.82714234  0.82642217    -0.03600
C63         C  0.43498409  0.82290122  0.82226180     0.05010
C64         C  0.43636354  0.81068666  0.80834091     0.03100
H65         H  0.45712527  0.83637279  0.83658565     0.08210
H66         H  0.42559416  0.80463090  0.80087099     0.07040
C67         C  0.64247180  0.83801003  0.86120940     0.03070
C68         C  0.62596680  0.83225286  0.85435169    -0.13080
C69         C  0.61855133  0.84031344  0.83910309     0.00570
C70         C  0.62748776  0.85446117  0.83075259    -0.11600
C71         C  0.64354776  0.86091006  0.83787423     0.03070
C72         C  0.65117986  0.85244572  0.85282896    -0.11020
H73         H  0.61841470  0.82203487  0.86130963     0.08660
H74         H  0.62126762  0.86130872  0.81954844     0.06190
H75         H  0.66348677  0.85767741  0.85839274     0.06040
C76         C  0.61114403  0.34715170  0.63731363     0.03070
C77         C  0.61949531  0.33940478  0.62234349    -0.13080
C78         C  0.63453167  0.34739076  0.61456390     0.00570
C79         C  0.64190110  0.36269512  0.62234842    -0.11600
C80         C  0.63392516  0.37051618  0.63739248     0.03070
C81         C  0.61834100  0.36292546  0.64462100    -0.11020
H82         H  0.61404219  0.32736097  0.61641554     0.08660
H83         H  0.65357719  0.36884866  0.61636162     0.06190
H84         H  0.61156786  0.36962203  0.65553995     0.06040
N85         N  0.66672084  0.46566921  0.67017309    -0.27340
N86         N  0.67834001  0.45658998  0.67996380    -0.35200
C87         C  0.67636533  0.43904019  0.67655435     0.01000
C88         C  0.66295510  0.43701538  0.66389781     0.07020
C89         C  0.65700355  0.45419658  0.66038885    -0.06080
H90         H  0.68409437  0.42853050  0.68286659     0.07690
H91         H  0.64609087  0.45814498  0.65173829     0.08890
Cu92       Cu  0.69587147  0.46848324  0.69788997     0.44170
Cu93       Cu  0.66432651  0.49317369  0.67022663     0.41990
Cu94       Cu  0.69259680  0.51681981  0.70075438     0.43880
N95         N  0.71105713  0.48405964  0.71511483    -0.34730
N96         N  0.70966433  0.50166073  0.71615695    -0.28990
C97         C  0.72117187  0.50779015  0.72849788    -0.05090
C98         C  0.73026827  0.49335589  0.73556422     0.07130
C99         C  0.72356197  0.47850249  0.72681471     0.00930
H100        H  0.72282343  0.52173976  0.73195576     0.08580
H101        H  0.72746777  0.46469419  0.72876381     0.07660
N102        N  0.67517229  0.52936062  0.68351355    -0.36180
N103        N  0.66481153  0.52069945  0.67214579    -0.28360
C104        C  0.65543861  0.53263078  0.66247735    -0.03600
C105        C  0.66000421  0.54959853  0.66824255     0.05010
C106        C  0.67268230  0.54702662  0.68146513     0.03100
H107        H  0.64603441  0.52920702  0.65201989     0.08210
H108        H  0.67993000  0.55719852  0.68874667     0.07040
N109        N  0.81223257  0.46615542  0.81028301    -0.27340
N110        N  0.80132335  0.45789053  0.79911878    -0.35200
C111        C  0.80330401  0.44014397  0.80089566     0.01000
C112        C  0.81621359  0.43696277  0.81372395     0.07020
C113        C  0.82146614  0.45375649  0.81957716    -0.06080
H114        H  0.79545087  0.43031455  0.79377344     0.07690
H115        H  0.83117372  0.45672445  0.82989515     0.08890
Cu116      Cu  0.78341864  0.47070297  0.78266146     0.44170
Cu117      Cu  0.81329966  0.49389570  0.81238266     0.41990
Cu118      Cu  0.77920705  0.51825568  0.78675775     0.43880
N119        N  0.76538274  0.48550939  0.76814003    -0.34730
N120        N  0.76361916  0.50302844  0.76962950    -0.28990
C121        C  0.75079274  0.50858486  0.75827916    -0.05090
C122        C  0.74423771  0.49377504  0.74932658     0.07130
C123        C  0.75376659  0.47938828  0.75590609     0.00930
H124        H  0.74664379  0.52236051  0.75662543     0.08580
H125        H  0.75245829  0.46550214  0.75206605     0.07660
N126        N  0.79805462  0.53033626  0.80311334    -0.36180
N127        N  0.81069378  0.52162871  0.81194656    -0.28360
C128        C  0.82100439  0.53357012  0.82055714    -0.03600
C129        C  0.81464548  0.55065063  0.81694564     0.05010
C130        C  0.79989494  0.54798247  0.80603471     0.03100
H131        H  0.83235152  0.53004880  0.82883965     0.08210
H132        H  0.79083449  0.55800931  0.80086013     0.07040
C133        C  0.86404986  0.64045070  0.84716426     0.03070
C134        C  0.85694906  0.62489859  0.83945906    -0.13080
C135        C  0.84230550  0.61626750  0.84734364     0.00570
C136        C  0.83464952  0.62337163  0.86293513    -0.11600
C137        C  0.84166696  0.63887198  0.87086854     0.03070
C138        C  0.85618620  0.64752001  0.86268933    -0.11020
H139        H  0.86324025  0.61912291  0.82773743     0.08660
H140        H  0.82344905  0.61656639  0.86911163     0.06190
H141        H  0.86158933  0.65961598  0.86854403     0.06040
C142        C  0.60988267  0.63527411  0.34811170     0.03070
C143        C  0.61803921  0.62045288  0.34001603    -0.13080
C144        C  0.63385954  0.61333752  0.34708475     0.00570
C145        C  0.64192058  0.62147130  0.36193423    -0.11600
C146        C  0.63355278  0.63584549  0.37070542     0.03070
C147        C  0.61747001  0.64268093  0.36362139    -0.11020
H148        H  0.61180888  0.61415844  0.32853194     0.08660
H149        H  0.65456339  0.61632099  0.36679692     0.06190
H150        H  0.61076430  0.65372751  0.37019287     0.06040
N151        N  0.66728490  0.67068946  0.46462825    -0.27340
N152        N  0.67630599  0.68320578  0.45600617    -0.35200
C153        C  0.67305940  0.68172854  0.43834422     0.01000
C154        C  0.66130340  0.66767833  0.43576965     0.07020
C155        C  0.65806460  0.66093238  0.45272169    -0.06080
H156        H  0.67925478  0.68992071  0.42814869     0.07690
H157        H  0.64965724  0.64967737  0.45615971     0.08890
Cu158      Cu  0.69296664  0.70128650  0.46867168     0.44170
Cu159      Cu  0.66759216  0.66733386  0.49213819     0.41990
Cu160      Cu  0.69225133  0.70024396  0.51710391     0.43880
N161        N  0.70896663  0.71711829  0.48475821    -0.34730
N162        N  0.70867676  0.71671527  0.50244954    -0.28990
C163        C  0.72093265  0.72815863  0.50885427    -0.05090
C164        C  0.72931282  0.73613110  0.49446880     0.07130
C165        C  0.72142016  0.72887008  0.47940003     0.00930
H166        H  0.72361944  0.73034216  0.52291780     0.08580
H167        H  0.72459279  0.73173914  0.46556247     0.07660
N168        N  0.67602360  0.68139977  0.52881186    -0.36180
N169        N  0.66744723  0.66889311  0.51979204    -0.28360
C170        C  0.65828583  0.65864164  0.53136956    -0.03600
C171        C  0.66095708  0.66528686  0.54848649     0.05010
C172        C  0.67245689  0.67958912  0.54631627     0.03100
H173        H  0.65043453  0.64715005  0.52751599     0.08210
H174        H  0.67769833  0.68822377  0.55667483     0.07040
N175        N  0.80787930  0.81306461  0.46592931    -0.27340
N176        N  0.79673761  0.80209584  0.45775070    -0.35200
C177        C  0.79835428  0.80403586  0.43995456     0.01000
C178        C  0.81106088  0.81700996  0.43669304     0.07020
C179        C  0.81696997  0.82231911  0.45347254    -0.06080
H180        H  0.79121458  0.79612579  0.43017751     0.07690
H181        H  0.82723397  0.83206953  0.45639581     0.08890
Cu182      Cu  0.78025685  0.78467841  0.47103153     0.44170
Cu183      Cu  0.81025410  0.81428709  0.49362920     0.41990
Cu184      Cu  0.78157520  0.78394140  0.51926280     0.43880
N185        N  0.76422918  0.76862402  0.48642460    -0.34730
N186        N  0.76448149  0.76823742  0.50411146    -0.28990
C187        C  0.75208682  0.75653334  0.50983360    -0.05090
C188        C  0.74375175  0.74932138  0.49495050     0.07130
C189        C  0.75178064  0.75725966  0.48037428     0.00930
H190        H  0.74932488  0.75358379  0.52374396     0.08580
H191        H  0.74876038  0.75507747  0.46637933     0.07660
N192        N  0.79979104  0.80145860  0.53065493    -0.36180
N193        N  0.81007141  0.81248968  0.52141014    -0.28360
C194        C  0.81998707  0.82214773  0.53288338    -0.03600
C195        C  0.81595085  0.81680660  0.55018893     0.05010
C196        C  0.80294265  0.80380058  0.54822644     0.03100
H197        H  0.82909956  0.83262196  0.52886823     0.08210
H198        H  0.79621463  0.79656936  0.55881020     0.07040
C199        C  0.86481721  0.84874887  0.63977375     0.03070
C200        C  0.85730455  0.84040086  0.62473336    -0.13080
C201        C  0.84179344  0.84722951  0.61665147     0.00570
C202        C  0.83373269  0.86259724  0.62381912    -0.11600
C203        C  0.84079703  0.87093028  0.63912870     0.03070
C204        C  0.85637417  0.86390390  0.64702609    -0.11020
H205        H  0.86377374  0.82872552  0.61905966     0.08660
H206        H  0.82209335  0.86827553  0.61728142     0.06190
H207        H  0.86214507  0.87044083  0.65859442     0.06040
N208        N  0.16231295  0.31298601  0.96698141    -0.27340
N209        N  0.17121880  0.30030166  0.95851673    -0.35200
C210        C  0.16881839  0.30232410  0.94076813     0.01000
C211        C  0.15774535  0.31695463  0.93790932     0.07020
C212        C  0.15418059  0.32353840  0.95488607    -0.06080
H213        H  0.17460816  0.29369287  0.93069718     0.07690
H214        H  0.14650561  0.33530408  0.95831107     0.08890
Cu215      Cu  0.18655643  0.28136646  0.97179694     0.44170
Cu216      Cu  0.16117284  0.31500945  0.99460287     0.41990
Cu217      Cu  0.18899705  0.28461882  0.02041642     0.43880
N218        N  0.20229720  0.26508008  0.98785390    -0.34730
N219        N  0.20330665  0.26618011  0.00550131    -0.28990
C220        C  0.21520815  0.25403225  0.01151366    -0.05090
C221        C  0.22203283  0.24497538  0.99690373     0.07130
C222        C  0.21354638  0.25230208  0.98216398     0.00930
H223        H  0.21889037  0.25224267  0.02541377     0.08580
H224        H  0.21560126  0.24885296  0.96825431     0.07660
N225        N  0.17244628  0.30374920  0.03171025    -0.36180
N226        N  0.16192181  0.31442837  0.02231511    -0.28360
C227        C  0.15225211  0.32453284  0.03360492    -0.03600
C228        C  0.15720530  0.32035144  0.05101289     0.05010
C229        C  0.16993368  0.30696515  0.04922537     0.03100
H230        H  0.14201548  0.33381585  0.02932617     0.08210
H231        H  0.17683623  0.29997490  0.05988331     0.07040
N232        N  0.29930268  0.16955398  0.96122645    -0.27340
N233        N  0.28909890  0.18232088  0.95452171    -0.35200
C234        C  0.29094879  0.18281926  0.93665364     0.01000
C235        C  0.30262968  0.16937606  0.93158540     0.07020
C236        C  0.30774628  0.16132315  0.94763774    -0.06080
H237        H  0.28476281  0.19281924  0.92822717     0.07690
H238        H  0.31718336  0.15048226  0.94938640     0.08890
Cu239      Cu  0.27307613  0.19844471  0.96983894     0.44170
Cu240      Cu  0.30218161  0.16550074  0.98874807     0.41990
Cu241      Cu  0.27481165  0.19484648  0.01763455     0.43880
N242        N  0.25657486  0.21258654  0.98655400    -0.34730
N243        N  0.25701634  0.21163916  0.00421232    -0.28990
C244        C  0.24464431  0.22295984  0.01087062    -0.05090
C245        C  0.23608900  0.23123217  0.99659116     0.07130
C246        C  0.24398372  0.22429017  0.98144453     0.00930
H247        H  0.24214880  0.22506374  0.02497812     0.08580
H248        H  0.24101941  0.22765066  0.96766354     0.07660
N249        N  0.29419417  0.17703771  0.02693996    -0.36180
N250        N  0.30397633  0.16644482  0.01665517    -0.28360
C251        C  0.31518410  0.15691584  0.02711693    -0.03600
C252        C  0.31249186  0.16183720  0.04482384     0.05010
C253        C  0.29893795  0.17447837  0.04413833     0.03100
H254        H  0.32436239  0.14689162  0.02216373     0.08210
H255        H  0.29300538  0.18142980  0.05536163     0.07040
N256        N  0.30483329  0.46615037  0.31663376    -0.27340
N257        N  0.29404546  0.45797210  0.30528790    -0.35200
C258        C  0.29573738  0.44019498  0.30720535     0.01000
C259        C  0.30803484  0.43692788  0.32059852     0.07020
C260        C  0.31367272  0.45368674  0.32620221    -0.06080
H261        H  0.28837619  0.43038170  0.29954466     0.07690
H262        H  0.32362629  0.45661680  0.33628822     0.08890
Cu263      Cu  0.27721495  0.47110652  0.28797552     0.44170
Cu264      Cu  0.30677459  0.49389794  0.31822401     0.41990
Cu265      Cu  0.27533841  0.51902048  0.29002606     0.43880
N266        N  0.26099252  0.48631384  0.27181652    -0.34730
N267        N  0.26019737  0.50395911  0.27236461    -0.28990
C268        C  0.24875991  0.50968546  0.25966805    -0.05090
C269        C  0.24208307  0.49484366  0.25086283     0.07130
C270        C  0.25008001  0.48028267  0.25892696     0.00930
H271        H  0.24566095  0.52357701  0.25699166     0.08580
H272        H  0.24834115  0.46632600  0.25554155     0.07660
N273        N  0.29377063  0.53070150  0.30712394    -0.36180
N274        N  0.30546672  0.52171825  0.31693528    -0.28360
C275        C  0.31595351  0.53346485  0.32561912    -0.03600
C276        C  0.31072037  0.55068514  0.32099039     0.05010
C277        C  0.29640528  0.54833066  0.30945115     0.03100
H278        H  0.32673573  0.52972121  0.33453854     0.08210
H279        H  0.28823812  0.55859593  0.30333483     0.07040
N280        N  0.16350393  0.46514541  0.17398681    -0.27340
N281        N  0.17588204  0.45647919  0.18320152    -0.35200
C282        C  0.17436739  0.43885548  0.18001150     0.01000
C283        C  0.16050866  0.43630398  0.16799720     0.07020
C284        C  0.15383104  0.45326792  0.16462384    -0.06080
H285        H  0.18250181  0.42868159  0.18634579     0.07690
H286        H  0.14277958  0.45674860  0.15593024     0.08890
Cu287      Cu  0.19425637  0.46890404  0.19967262     0.44170
Cu288      Cu  0.16050603  0.49270124  0.17410223     0.41990
Cu289      Cu  0.19586798  0.51691998  0.19630057     0.43880
N290        N  0.21068667  0.48475002  0.21522606    -0.34730
N291        N  0.21123156  0.50237948  0.21404245    -0.28990
C292        C  0.22251052  0.50875424  0.22650258    -0.05090
C293        C  0.22943169  0.49439574  0.23588331     0.07130
C294        C  0.22170805  0.47938543  0.22838170     0.00930
H295        H  0.22529052  0.52278619  0.22865479     0.08580
H296        H  0.22366938  0.46560293  0.23237603     0.07660
N297        N  0.17648518  0.52892101  0.18074705    -0.36180
N298        N  0.16287731  0.52029774  0.17356964    -0.28360
C299        C  0.15217127  0.53217400  0.16530386    -0.03600
C300        C  0.15940165  0.54914722  0.16735774     0.05010
C301        C  0.17502016  0.54641301  0.17697636     0.03100
H302        H  0.14007855  0.52864506  0.15819955     0.08210
H303        H  0.18497910  0.55618558  0.18062215     0.07040
C304        C  0.12970403  0.34708862  0.11836092     0.03070
C305        C  0.13733821  0.36257702  0.12570030    -0.13080
C306        C  0.13049748  0.37010760  0.14148244     0.00570
C307        C  0.11624058  0.36163217  0.15019693    -0.11600
C308        C  0.10798373  0.34662253  0.14262376     0.03070
C309        C  0.11479448  0.33933875  0.12672047    -0.11020
H310        H  0.14839779  0.36898461  0.11887761     0.08660
H311        H  0.11111221  0.36706716  0.16262182     0.06190
H312        H  0.10812055  0.32807677  0.12051809     0.06040
N313        N  0.50965131  0.31647050  0.31283035    -0.27340
N314        N  0.51884668  0.30362262  0.30494654    -0.35200
C315        C  0.53627961  0.30579167  0.30880957     0.01000
C316        C  0.53826983  0.32080404  0.31964308     0.07020
C317        C  0.52097976  0.32735701  0.32154687    -0.06080
H318        H  0.54673194  0.29697297  0.30409676     0.07690
H319        H  0.51672122  0.33932882  0.32833700     0.08890
Cu320      Cu  0.50717373  0.28431978  0.28857682     0.44170
Cu321      Cu  0.48198089  0.31788757  0.31276448     0.41990
Cu322      Cu  0.45862472  0.28415002  0.28735570     0.43880
N323        N  0.49211478  0.26792462  0.27179160    -0.34730
N324        N  0.47443606  0.26786138  0.27144093    -0.28990
C325        C  0.46882643  0.25605317  0.25907508    -0.05090
C326        C  0.48366923  0.24834040  0.25119790     0.07130
C327        C  0.49820742  0.25618191  0.25957052     0.00930
H328        H  0.45495483  0.25341395  0.25596421     0.08580
H329        H  0.51219430  0.25360717  0.25694260     0.07660
N330        N  0.44593018  0.30221505  0.30411398    -0.36180
N331        N  0.45448081  0.31459571  0.31335949    -0.28360
C332        C  0.44253996  0.32413127  0.32283272    -0.03600
C333        C  0.42562712  0.31738183  0.31948855     0.05010
C334        C  0.42830977  0.30360252  0.30738417     0.03100
H335        H  0.44593568  0.33518550  0.33152373     0.08210
H336        H  0.41821158  0.29547944  0.30099337     0.07040
N337        N  0.45937929  0.16979239  0.17095928    -0.27340
N338        N  0.44971163  0.17986440  0.18180893    -0.35200
C339        C  0.43225578  0.17684877  0.17851557     0.01000
C340        C  0.43079951  0.16450837  0.16466987     0.07020
C341        C  0.44835655  0.16027623  0.16040628    -0.06080
H342        H  0.42149306  0.18292800  0.18600090     0.07690
H343        H  0.45283732  0.15096745  0.15027289     0.08890
Cu344      Cu  0.46089590  0.19757655  0.20030237     0.44170
Cu345      Cu  0.48718548  0.16916060  0.17098138     0.41990
Cu346      Cu  0.50961753  0.20041773  0.19984296     0.43880
N347        N  0.47572701  0.21469665  0.21665624    -0.34730
N348        N  0.49338701  0.21563605  0.21637721    -0.28990
C349        C  0.49884994  0.22771387  0.22852875    -0.05090
C350        C  0.48395780  0.23478138  0.23687685     0.07130
C351        C  0.46951227  0.22625838  0.22901164     0.00930
H352        H  0.51268052  0.23103870  0.23111210     0.08580
H353        H  0.45552245  0.22821853  0.23210735     0.07660
N354        N  0.52308218  0.18311625  0.18288382    -0.36180
N355        N  0.51485432  0.17137730  0.17257387    -0.28360
C356        C  0.52717480  0.16194288  0.16347565    -0.03600
C357        C  0.54401912  0.16827098  0.16797932     0.05010
C358        C  0.54084598  0.18156174  0.18051657     0.03100
H359        H  0.52401697  0.15108854  0.15447277     0.08210
H360        H  0.55072452  0.18963640  0.18732099     0.07040
C361        C  0.36800034  0.13191601  0.13222435     0.03070
C362        C  0.35991171  0.13989922  0.11717940    -0.13080
C363        C  0.34460740  0.13231260  0.10932803     0.00570
C364        C  0.33749331  0.11654589  0.11664847    -0.11600
C365        C  0.34506340  0.10863756  0.13195898     0.03070
C366        C  0.36042554  0.11633293  0.13957698    -0.11020
H367        H  0.36558666  0.15198284  0.11152835     0.08660
H368        H  0.32592444  0.11043314  0.11043426     0.06190
H369        H  0.36653915  0.11016644  0.15120933     0.06040
N370        N  0.16276894  0.96610582  0.31250486    -0.27340
N371        N  0.17175325  0.95763637  0.29986623    -0.35200
C372        C  0.16982142  0.93988619  0.30218619     0.01000
C373        C  0.15931703  0.93698821  0.31721270     0.07020
C374        C  0.15496393  0.95398028  0.32325882    -0.06080
H375        H  0.17535686  0.92990921  0.29330449     0.07690
H376        H  0.14673719  0.95730502  0.33469180     0.08890
Cu377      Cu  0.18655007  0.97077493  0.28037652     0.44170
Cu378      Cu  0.16141695  0.99377876  0.31432924     0.41990
Cu379      Cu  0.18773350  0.01927274  0.28217436     0.43880
N380        N  0.20189521  0.98657786  0.26345536    -0.34730
N381        N  0.20245113  0.00425018  0.26406077    -0.28990
C382        C  0.21419579  0.01018193  0.25174554    -0.05090
C383        C  0.22137467  0.99550811  0.24304075     0.07130
C384        C  0.21325768  0.98080043  0.25079593     0.00930
H385        H  0.21749017  0.02409995  0.24955211     0.08580
H386        H  0.21564656  0.96686520  0.24771056     0.07660
N387        N  0.17190652  0.03077245  0.30186795    -0.36180
N388        N  0.16227469  0.02152188  0.31346073    -0.28360
C389        C  0.15343400  0.03295948  0.32416731    -0.03600
C390        C  0.15789205  0.05027570  0.31927499     0.05010
C391        C  0.16948781  0.04832869  0.30495163     0.03100
H392        H  0.14411550  0.02889478  0.33444998     0.08210
H393        H  0.17574459  0.05891430  0.29731821     0.07040
N394        N  0.30220279  0.96091385  0.17052870    -0.27340
N395        N  0.29051212  0.95365600  0.18157927    -0.35200
C396        C  0.29295138  0.93584637  0.18195314     0.01000
C397        C  0.30700204  0.93159702  0.17067124     0.07020
C398        C  0.31234463  0.94785448  0.16343089    -0.06080
H399        H  0.28518872  0.92669467  0.19003768     0.07690
H400        H  0.32265619  0.95009170  0.15355348     0.08890
Cu401      Cu  0.27212004  0.96844415  0.19582083     0.44170
Cu402      Cu  0.30408748  0.98838310  0.16656642     0.41990
Cu403      Cu  0.27421780  0.01682843  0.19330677     0.43880
N404        N  0.25556263  0.98525663  0.21007933    -0.34730
N405        N  0.25623366  0.00292682  0.20956354    -0.28990
C406        C  0.24399605  0.00949205  0.22108874    -0.05090
C407        C  0.23530442  0.99519858  0.22911869     0.07130
C408        C  0.24298118  0.98010440  0.22177824     0.00930
H409        H  0.24174803  0.02357169  0.22357341     0.08580
H410        H  0.23990976  0.96631677  0.22491986     0.07660
N411        N  0.29363441  0.02653600  0.17569465    -0.36180
N412        N  0.30431887  0.01620882  0.16607264    -0.28360
C413        C  0.31531438  0.02659876  0.15633535    -0.03600
C414        C  0.31128919  0.04437206  0.15973946     0.05010
C415        C  0.29759516  0.04377788  0.17224854     0.03100
H416        H  0.32577061  0.02150780  0.14774126     0.08210
H417        H  0.29094165  0.05508376  0.17836356     0.07040
N418        N  0.95610818  0.17258384  0.31605011    -0.27340
N419        N  0.94738330  0.18379650  0.30550851    -0.35200
C420        C  0.92973102  0.18090178  0.30715055     0.01000
C421        C  0.92717576  0.16736525  0.31957540     0.07020
C422        C  0.94424142  0.16232438  0.32478968    -0.06080
H423        H  0.91960956  0.18791073  0.29953189     0.07690
H424        H  0.94779165  0.15198764  0.33431185     0.08890
Cu425      Cu  0.95996206  0.20261604  0.28965431     0.44170
Cu426      Cu  0.98371351  0.17172992  0.31795092     0.41990
Cu427      Cu  0.00821002  0.20608727  0.29406505     0.43880
N428        N  0.97545407  0.22059857  0.27551362    -0.34730
N429        N  0.99300009  0.22199016  0.27712047    -0.28990
C430        C  0.99888504  0.23461858  0.26572000    -0.05090
C431        C  0.98431621  0.24144792  0.25655542     0.07130
C432        C  0.96969703  0.23228988  0.26310627     0.00930
H433        H  0.01275654  0.23832447  0.26405213     0.08580
H434        H  0.95590404  0.23379463  0.25900467     0.07660
N435        N  0.02019113  0.18701486  0.31031422    -0.36180
N436        N  0.01127548  0.17418362  0.31856037    -0.28360
C437        C  0.02291058  0.16348428  0.32716362    -0.03600
C438        C  0.04001856  0.17006760  0.32454099     0.05010
C439        C  0.03773782  0.18491163  0.31361323     0.03100
H440        H  0.01911760  0.15150302  0.33431753     0.08210
H441        H  0.04809042  0.19350423  0.30831559     0.07040
N442        N  0.95662542  0.31346096  0.17210404    -0.27340
N443        N  0.94777521  0.30261980  0.18290249    -0.35200
C444        C  0.93016914  0.30405619  0.17947236     0.01000
C445        C  0.92784393  0.31634835  0.16577778     0.07020
C446        C  0.94490218  0.32213577  0.16156860    -0.06080
H447        H  0.91983251  0.29716890  0.18687486     0.07690
H448        H  0.94851632  0.33211328  0.15171034     0.08890
Cu449      Cu  0.96008505  0.28713851  0.20234679     0.44170
Cu450      Cu  0.98416614  0.31642489  0.17247081     0.41990
Cu451      Cu  0.00833195  0.29130090  0.20607964     0.43880
N452        N  0.97549341  0.27330608  0.22080121    -0.34730
N453        N  0.99304288  0.27484341  0.22221352    -0.28990
C454        C  0.99890011  0.26388390  0.23525893    -0.05090
C455        C  0.98431927  0.25505442  0.24236269     0.07130
C456        C  0.96970750  0.26134261  0.23291204     0.00930
H457        H  0.01275936  0.26234110  0.23911694     0.08580
H458        H  0.95589782  0.25740749  0.23455950     0.07660
N459        N  0.02053686  0.30793479  0.18764997    -0.36180
N460        N  0.01172121  0.31704664  0.17529449    -0.28360
C461        C  0.02348319  0.32610373  0.16516698    -0.03600
C462        C  0.04053120  0.32269620  0.17159165     0.05010
C463        C  0.03813407  0.31096731  0.18573981     0.03100
H464        H  0.01986398  0.33414636  0.15367085     0.08210
H465        H  0.04843148  0.30500382  0.19400769     0.07040
N466        N  0.30701825  0.31572834  0.46622881    -0.27340
N467        N  0.29527297  0.30567126  0.45770991    -0.35200
C468        C  0.29677973  0.30846858  0.44001411     0.01000
C469        C  0.31001605  0.32104109  0.43720064     0.07020
C470        C  0.31636337  0.32521118  0.45413165    -0.06080
H471        H  0.28874892  0.30188137  0.42994074     0.07690
H472        H  0.32717133  0.33420365  0.45745478     0.08890
Cu473      Cu  0.27781223  0.28852573  0.47036355     0.44170
Cu474      Cu  0.30940201  0.31621522  0.49389876     0.41990
Cu475      Cu  0.27792335  0.28840633  0.51861631     0.43880
N476        N  0.26172937  0.27214904  0.48561544    -0.34730
N477        N  0.26164959  0.27208011  0.50331048    -0.28990
C478        C  0.24977103  0.25988099  0.50906451    -0.05090
C479        C  0.24208566  0.25193444  0.49422797     0.07130
C480        C  0.24996553  0.26001501  0.47960097     0.00930
H481        H  0.24702341  0.25698515  0.52298876     0.08580
H482        H  0.24739055  0.25730084  0.46561094     0.07660
N483        N  0.29597493  0.30564156  0.53055412    -0.36180
N484        N  0.30756468  0.31554564  0.52161059    -0.28360
C485        C  0.31729151  0.32509102  0.53332603    -0.03600
C486        C  0.31137234  0.32122142  0.55047192     0.05010
C487        C  0.29799247  0.30866865  0.54817736     0.03100
H488        H  0.32805242  0.33397196  0.52957363     0.08210
H489        H  0.29017364  0.30229390  0.55855601     0.07040
N490        N  0.16596874  0.17237330  0.46478974    -0.27340
N491        N  0.17659435  0.18341963  0.45600184    -0.35200
C492        C  0.17372993  0.18153687  0.43831562     0.01000
C493        C  0.16047878  0.16886542  0.43590758     0.07020
C494        C  0.15605143  0.16319124  0.45297600    -0.06080
H495        H  0.18055359  0.18906198  0.42800206     0.07690
H496        H  0.14641738  0.15304065  0.45659453     0.08890
Cu497      Cu  0.19394570  0.20087119  0.46862977     0.44170
Cu498      Cu  0.16494008  0.17050281  0.49240678     0.41990
Cu499      Cu  0.19204324  0.20148756  0.51736408     0.43880
N500        N  0.20926259  0.21749320  0.48459262    -0.34730
N501        N  0.20853614  0.21776179  0.50228444    -0.28990
C502        C  0.22011747  0.23002296  0.50846077    -0.05090
C503        C  0.22847515  0.23783837  0.49394570     0.07130
C504        C  0.22129559  0.22960414  0.47903340     0.00930
H505        H  0.22224986  0.23300358  0.52247082     0.08580
H506        H  0.22454839  0.23218750  0.46515801     0.07660
N507        N  0.17527624  0.18300685  0.52924765    -0.36180
N508        N  0.16554115  0.17147128  0.52008041    -0.28360
C509        C  0.15642524  0.16109288  0.53157972    -0.03600
C510        C  0.16074570  0.16626544  0.54882951     0.05010
C511        C  0.17257034  0.18033484  0.54684141     0.03100
H512        H  0.14711469  0.15076555  0.52763548     0.08210
H513        H  0.17887574  0.18795708  0.55740114     0.07040
C514        C  0.13188113  0.14104305  0.36957520     0.03070
C515        C  0.13874125  0.12524798  0.36204608    -0.13080
C516        C  0.13041311  0.11726040  0.34717512     0.00570
C517        C  0.11467648  0.12492934  0.34027531    -0.11600
C518        C  0.10770085  0.14065106  0.34773433     0.03070
C519        C  0.11640094  0.14870365  0.36220223    -0.11020
H520        H  0.15034416  0.11891764  0.36801118     0.08660
H521        H  0.10753694  0.11839654  0.32948673     0.06190
H522        H  0.11081715  0.16076990  0.36800169     0.06040
C523        C  0.33528151  0.34571079  0.36844717     0.03070
C524        C  0.32675471  0.36009078  0.35997613    -0.13080
C525        C  0.33424531  0.36814996  0.34475722     0.00570
C526        C  0.35013515  0.36108455  0.33761584    -0.11600
C527        C  0.35885787  0.34661977  0.34596272     0.03070
C528        C  0.35130244  0.33903604  0.36141692    -0.11020
H529        H  0.31454754  0.36544217  0.36568275     0.08660
H530        H  0.35607727  0.36724262  0.32594184     0.06190
H531        H  0.35823413  0.32834551  0.36838265     0.06040
N532        N  0.80549834  0.66783252  0.96623740    -0.27340
N533        N  0.79382299  0.67795598  0.95761949    -0.35200
C534        C  0.79622423  0.67593983  0.93988711     0.01000
C535        C  0.80994198  0.66375257  0.93717247     0.07020
C536        C  0.81560944  0.65906371  0.95422252    -0.06080
H537        H  0.78877165  0.68315874  0.92977789     0.07690
H538        H  0.82628194  0.64989103  0.95765754     0.08890
Cu539      Cu  0.77522247  0.69403443  0.97046836     0.44170
Cu540      Cu  0.80719563  0.66664460  0.99393086     0.41990
Cu541      Cu  0.77547807  0.69383534  0.01898185     0.43880
N542        N  0.75788428  0.70902419  0.98610616    -0.34730
N543        N  0.75799196  0.70909202  0.00381147    -0.28990
C544        C  0.74538582  0.72052202  0.00971666    -0.05090
C545        C  0.73694171  0.72793363  0.99498800     0.07130
C546        C  0.74517953  0.72033272  0.98026610     0.00930
H547        H  0.74267548  0.72328563  0.02366909     0.08580
H548        H  0.74233072  0.72297011  0.96630564     0.07660
N549        N  0.79470445  0.67769763  0.03074780    -0.36180
N550        N  0.80627964  0.66789364  0.02165662    -0.28360
C551        C  0.81692105  0.65915458  0.03325921    -0.03600
C552        C  0.81192212  0.66381151  0.05048307     0.05010
C553        C  0.79766088  0.67543032  0.04836423     0.03100
H554        H  0.82729756  0.64984051  0.02939397     0.08210
H555        H  0.79005803  0.68187405  0.05885895     0.07040
N556        N  0.66371769  0.80795433  0.96058169    -0.27340
N557        N  0.67319240  0.79491143  0.95335085    -0.35200
C558        C  0.67292241  0.79658139  0.93543667     0.01000
C559        C  0.66298777  0.81157956  0.93112689     0.07020
C560        C  0.65718299  0.81836777  0.94739618    -0.06080
H561        H  0.67978057  0.78774193  0.92625465     0.07690
H562        H  0.64873761  0.82993270  0.94950811     0.08890
Cu563      Cu  0.68702028  0.77624997  0.96820174     0.44170
Cu564      Cu  0.66069752  0.81086809  0.98811970     0.41990
Cu565      Cu  0.68740508  0.78072901  0.01637956     0.43880
N566        N  0.70249837  0.76068225  0.98488505    -0.34730
N567        N  0.70296545  0.76220552  0.00251313    -0.28990
C568        C  0.71511207  0.75054085  0.00902347    -0.05090
C569        C  0.72259404  0.74140026  0.99472273     0.07130
C570        C  0.71426272  0.74817295  0.97968238     0.00930
H571        H  0.71848057  0.74909188  0.02304140     0.08580
H572        H  0.71677011  0.74455111  0.96589138     0.07660
N573        N  0.67008565  0.80026071  0.02621323    -0.36180
N574        N  0.66029528  0.81094593  0.01599278    -0.28360
C575        C  0.65041563  0.82168040  0.02653887    -0.03600
C576        C  0.65404782  0.81753375  0.04425631     0.05010
C577        C  0.66672847  0.80402835  0.04351721     0.03100
H578        H  0.64146602  0.83195981  0.02162966     0.08210
H579        H  0.67292939  0.79729366  0.05475784     0.07040
C580        C  0.13245870  0.63871161  0.87467345     0.03070
C581        C  0.13897001  0.62235143  0.86811859    -0.13080
C582        C  0.13057791  0.61384503  0.85363898     0.00570
C583        C  0.11529372  0.62165394  0.84599596    -0.11600
C584        C  0.10850597  0.63789899  0.85249970     0.03070
C585        C  0.11744504  0.64656546  0.86651706    -0.11020
H586        H  0.15052695  0.61618740  0.87432311     0.08660
H587        H  0.10854226  0.61494254  0.83505940     0.06190
H588        H  0.11258617  0.65937971  0.87124683     0.06040
C589        C  0.62589262  0.13239796  0.87406162     0.03070
C590        C  0.61111086  0.14051606  0.86569650    -0.13080
C591        C  0.60318669  0.13278337  0.85049823     0.00570
C592        C  0.61031703  0.11681974  0.84362990    -0.11600
C593        C  0.62552413  0.10888920  0.85134694     0.03070
C594        C  0.63312771  0.11666065  0.86669844    -0.11020
H595        H  0.60576974  0.15289698  0.87102632     0.08660
H596        H  0.60402892  0.11054301  0.83217651     0.06190
H597        H  0.64448290  0.11029375  0.87310562     0.06040
N598        N  0.30769845  0.46580484  0.67262945    -0.27340
N599        N  0.29738549  0.45714399  0.68405881    -0.35200
C600        C  0.30039368  0.43946491  0.68242479     0.01000
C601        C  0.31340972  0.43690569  0.66946347     0.07020
C602        C  0.31756715  0.45392683  0.66345401    -0.06080
H603        H  0.29329839  0.42927317  0.68983658     0.07690
H604        H  0.32712238  0.45744562  0.65317323     0.08890
Cu605      Cu  0.27984229  0.47004870  0.70123955     0.44170
Cu606      Cu  0.30800846  0.49334516  0.67009530     0.41990
Cu607      Cu  0.28116461  0.51886363  0.70131871     0.43880
N608        N  0.26386070  0.48605145  0.71731693    -0.34730
N609        N  0.26435490  0.50374359  0.71749945    -0.28990
C610        C  0.25222543  0.50980858  0.72935326    -0.05090
C611        C  0.24372312  0.49522688  0.73694465     0.07130
C612        C  0.25143709  0.48041031  0.72901193     0.00930
H613        H  0.24973464  0.52379003  0.73214350     0.08580
H614        H  0.24825294  0.46651668  0.73150217     0.07660
N615        N  0.29817977  0.53038108  0.68258893    -0.36180
N616        N  0.30755285  0.52098393  0.67090126    -0.28360
C617        C  0.31699204  0.53220498  0.66051065    -0.03600
C618        C  0.31337749  0.54952964  0.66586294     0.05010
C619        C  0.30154558  0.54787835  0.68001925     0.03100
H620        H  0.32619700  0.52800891  0.65016539     0.08210
H621        H  0.29579573  0.55860445  0.68785211     0.07040
N622        N  0.16570621  0.46568466  0.81509431    -0.27340
N623        N  0.17572484  0.45724933  0.80323020    -0.35200
C624        C  0.17335503  0.43951273  0.80510235     0.01000
C625        C  0.16115922  0.43665945  0.81875047     0.07020
C626        C  0.15673893  0.45356065  0.82488384    -0.06080
H627        H  0.18032812  0.42946324  0.79737411     0.07690
H628        H  0.14761552  0.45681488  0.83563575     0.08890
Cu629      Cu  0.19252341  0.47035939  0.78550738     0.44170
Cu630      Cu  0.16472259  0.49326344  0.81733170     0.41990
Cu631      Cu  0.19346061  0.51891557  0.78763419     0.43880
N632        N  0.20900680  0.48621120  0.76984636    -0.34730
N633        N  0.20945733  0.50388389  0.77057335    -0.28990
C634        C  0.22179876  0.50988922  0.75891409    -0.05090
C635        C  0.22946268  0.49527303  0.75051490     0.07130
C636        C  0.22102568  0.48050863  0.75776185     0.00930
H637        H  0.22502255  0.52383955  0.75682357     0.08580
H638        H  0.22349966  0.46660482  0.75459994     0.07660
N639        N  0.17584636  0.53032595  0.80586374    -0.36180
N640        N  0.16540889  0.52093491  0.81660760    -0.28360
C641        C  0.15556521  0.53220515  0.82656561    -0.03600
C642        C  0.15984864  0.54956811  0.82178836     0.05010
C643        C  0.17292413  0.54784907  0.80875495     0.03100
H644        H  0.14586923  0.52804129  0.83646529     0.08210
H645        H  0.18005245  0.55850026  0.80205772     0.07040
C646        C  0.34140525  0.37099042  0.63987935     0.03070
C647        C  0.35714913  0.36329016  0.64671307    -0.13080
C648        C  0.36410692  0.34749303  0.63924743     0.00570
C649        C  0.35539875  0.33972020  0.62451950    -0.11600
C650        C  0.33965468  0.34724583  0.61762441     0.03070
C651        C  0.33251078  0.36260182  0.62565457    -0.11020
H652        H  0.36427728  0.36989853  0.65746327     0.08660
H653        H  0.36113458  0.32804085  0.61812346     0.06190
H654        H  0.32022899  0.36832043  0.62046172     0.06040
N655        N  0.46028931  0.31240142  0.66751947    -0.27340
N656        N  0.45148566  0.30128333  0.67806779    -0.35200
C657        C  0.43382623  0.30399801  0.67590002     0.01000
C658        C  0.43140487  0.31732529  0.66320504     0.07020
C659        C  0.44850611  0.32246976  0.65836489    -0.06080
H660        H  0.42350631  0.29670316  0.68293312     0.07690
H661        H  0.45218032  0.33297229  0.64910514     0.08890
Cu662      Cu  0.46409806  0.28298253  0.69479013     0.44170
Cu663      Cu  0.48791230  0.31343331  0.66604385     0.41990
Cu664      Cu  0.51269250  0.28369190  0.69537728     0.43880
N665        N  0.47978328  0.26594818  0.71020386    -0.34730
N666        N  0.49745454  0.26627184  0.71057478    -0.28990
C667        C  0.50337305  0.25356836  0.72192882    -0.05090
C668        C  0.48870643  0.24483225  0.72898498     0.07130
C669        C  0.47399310  0.25301419  0.72126716     0.00930
H670        H  0.51730548  0.25088806  0.72476928     0.08580
H671        H  0.46007120  0.24986613  0.72354543     0.07660
N672        N  0.52460129  0.30152748  0.67784308    -0.36180
N673        N  0.51555789  0.31217873  0.66696050    -0.28360
C674        C  0.52715119  0.32183631  0.65719723    -0.03600
C675        C  0.54432411  0.31694874  0.66209420     0.05010
C676        C  0.54219164  0.30418439  0.67535190     0.03100
H677        H  0.52332324  0.33194384  0.64754201     0.08210
H678        H  0.55265928  0.29726301  0.68259639     0.07040
N679        N  0.45500960  0.16936382  0.80723250    -0.27340
N680        N  0.44774129  0.17899526  0.79428648    -0.35200
C681        C  0.42985617  0.17846280  0.79575977     0.01000
C682        C  0.42556516  0.16785552  0.81030041     0.07020
C683        C  0.44185942  0.16243820  0.81736502    -0.06080
H684        H  0.42072761  0.18587412  0.78729464     0.07690
H685        H  0.44398861  0.15426582  0.82914753     0.08890
Cu686      Cu  0.46240551  0.19361327  0.77615496     0.44170
Cu687      Cu  0.48253533  0.16705509  0.81070236     0.41990
Cu688      Cu  0.51040093  0.19422152  0.78074761     0.43880
N689        N  0.47886698  0.20948966  0.76085271    -0.34730
N690        N  0.49645975  0.20998860  0.76239944    -0.28990
C691        C  0.50285837  0.22245556  0.75104183    -0.05090
C692        C  0.48852390  0.23011385  0.74206988     0.07130
C693        C  0.47357521  0.22154131  0.74861405     0.00930
H694        H  0.51682243  0.22594915  0.74972607     0.08580
H695        H  0.45978566  0.22410620  0.74505865     0.07660
N696        N  0.52041006  0.17747742  0.80074107    -0.36180
N697        N  0.51036076  0.16764785  0.81149228    -0.28360
C698        C  0.52103131  0.15840895  0.82271643    -0.03600
C699        C  0.53866897  0.16276481  0.81907289     0.05010
C700        C  0.53770959  0.17474334  0.80490748     0.03100
H701        H  0.51624306  0.14890347  0.83252010     0.08210
H702        H  0.54880731  0.18108118  0.79814044     0.07040
N703        N  0.66355747  0.16963832  0.96615479    -0.27340
N704        N  0.67370625  0.18045448  0.95652039    -0.35200
C705        C  0.67065307  0.17734686  0.93902074     0.01000
C706        C  0.65814874  0.16373692  0.93750033     0.07020
C707        C  0.65384852  0.15936199  0.95502738    -0.06080
H708        H  0.67686651  0.18473564  0.92824618     0.07690
H709        H  0.64441796  0.14930655  0.95939363     0.08890
Cu710      Cu  0.69149901  0.19881171  0.96756624     0.44170
Cu711      Cu  0.66327024  0.16914436  0.99404534     0.41990
Cu712      Cu  0.69342974  0.19950716  0.01607266     0.43880
N713        N  0.70852602  0.21531751  0.98216711    -0.34730
N714        N  0.70903934  0.21555383  0.99986729    -0.28990
C715        C  0.72135344  0.22744631  0.00528321    -0.05090
C716        C  0.72903840  0.23504643  0.99029102     0.07130
C717        C  0.72061165  0.22706395  0.97584607     0.00930
H718        H  0.72456757  0.23019930  0.01913281     0.08580
H719        H  0.72309813  0.22955134  0.96179430     0.07660
N720        N  0.67695323  0.18204424  0.02974995    -0.36180
N721        N  0.66578026  0.17094456  0.02176189    -0.28360
C722        C  0.65687447  0.16167470  0.03437027    -0.03600
C723        C  0.66290392  0.16705163  0.05108583     0.05010
C724        C  0.67551128  0.18012399  0.04759408     0.03100
H725        H  0.64675230  0.15173828  0.03158396     0.08210
H726        H  0.68279063  0.18802544  0.05727391     0.07040
N727        N  0.80815472  0.31404835  0.01554265    -0.27340
N728        N  0.79770195  0.30312845  0.02471421    -0.35200
C729        C  0.80087497  0.30531668  0.04230291     0.01000
C730        C  0.81413144  0.31805431  0.04435801     0.07020
C731        C  0.81830351  0.32342043  0.02708348    -0.06080
H732        H  0.79410083  0.29806136  0.05284061     0.07690
H733        H  0.82775729  0.33362812  0.02316193     0.08890
Cu734      Cu  0.77975653  0.28546897  0.01303439     0.44170
Cu735      Cu  0.80818167  0.31560507  0.98773507     0.41990
Cu736      Cu  0.78122722  0.28233581  0.96491510     0.43880
N737        N  0.76354763  0.26844458  0.99825951    -0.34730
N738        N  0.76415997  0.26729021  0.98060981    -0.28990
C739        C  0.75197462  0.25531432  0.97504038    -0.05090
C740        C  0.74332118  0.24854976  0.98991869     0.07130
C741        C  0.75099284  0.25714597  0.00441801     0.00930
H742        H  0.74961563  0.25182265  0.96118682     0.08580
H743        H  0.74766923  0.25539179  0.01840495     0.07660
N744        N  0.79727513  0.30063369  0.95183075    -0.36180
N745        N  0.80655898  0.31320715  0.96004166    -0.28360
C746        C  0.81477130  0.32331802  0.94764007    -0.03600
C747        C  0.81043061  0.31684839  0.93076571     0.05010
C748        C  0.79950806  0.30225805  0.93404897     0.03100
H749        H  0.82330945  0.33456966  0.95071472     0.08210
H750        H  0.79387944  0.29313602  0.92436855     0.07040
C751        C  0.63572272  0.11943952  0.14263652     0.03070
C752        C  0.62061315  0.12735136  0.15056464    -0.13080
C753        C  0.61307666  0.14299279  0.14329647     0.00570
C754        C  0.62081261  0.15073616  0.12802369    -0.11600
C755        C  0.63533307  0.14253588  0.11941466     0.03070
C756        C  0.64292842  0.12710092  0.12703329    -0.11020
H757        H  0.61420895  0.12086866  0.16184510     0.08660
H758        H  0.61503195  0.16282045  0.12243548     0.06190
H759        H  0.65411948  0.12065072  0.12045239     0.06040
N760        N  0.66174033  0.96581388  0.17059633    -0.27340
N761        N  0.67323104  0.95602442  0.17985247    -0.35200
C762        C  0.67032199  0.93862320  0.17626140     0.01000
C763        C  0.65613455  0.93732785  0.16434297     0.07020
C764        C  0.65120395  0.95489757  0.16094054    -0.06080
H765        H  0.67826514  0.92778575  0.18165640     0.07690
H766        H  0.64066956  0.95943715  0.15209122     0.08890
Cu767      Cu  0.69224861  0.96681025  0.19709347     0.44170
Cu768      Cu  0.66113063  0.99361996  0.17105914     0.41990
Cu769      Cu  0.69324351  0.01551880  0.19944323     0.43880
N770        N  0.70901739  0.98114213  0.21406702    -0.34730
N771        N  0.70921468  0.99882045  0.21491365    -0.28990
C772        C  0.72118218  0.00393624  0.22731450    -0.05090
C773        C  0.72892360  0.98879203  0.23464116     0.07130
C774        C  0.72091617  0.97456110  0.22593506     0.00930
H775        H  0.72398555  0.01770301  0.23075183     0.08580
H776        H  0.72344264  0.96047219  0.22812925     0.07660
N777        N  0.67584059  0.02931570  0.18271582    -0.36180
N778        N  0.66394318  0.02124602  0.17245180    -0.28360
C779        C  0.65477064  0.03368489  0.16319530    -0.03600
C780        C  0.66137036  0.05043789  0.16760486     0.05010
C781        C  0.67458054  0.04711634  0.18021881     0.03100
H782        H  0.64392885  0.03069249  0.15410574     0.08210
H783        H  0.68282402  0.05691220  0.18694012     0.07040
N784        N  0.80636767  0.01594140  0.31414858    -0.27340
N785        N  0.79520423  0.02467537  0.30357821    -0.35200
C786        C  0.79781444  0.04236011  0.30554691     0.01000
C787        C  0.81156709  0.04493282  0.31773315     0.07020
C788        C  0.81651789  0.02781876  0.32300318    -0.06080
H789        H  0.78992164  0.05250661  0.29889002     0.07690
H790        H  0.82677228  0.02423024  0.33258637     0.08890
Cu791      Cu  0.77740231  0.01193683  0.28664664     0.44170
Cu792      Cu  0.80702299  0.98829637  0.31604852     0.41990
Cu793      Cu  0.77955993  0.96335364  0.28445807     0.43880
N794        N  0.76197589  0.99655709  0.26955732    -0.34730
N795        N  0.76269312  0.97890127  0.26859386    -0.28990
C796        C  0.75101391  0.97331673  0.25605082    -0.05090
C797        C  0.74263685  0.98819833  0.24879845     0.07130
C798        C  0.74992427  0.00266394  0.25767643     0.00930
H799        H  0.74883202  0.95947323  0.25246801     0.08580
H800        H  0.74674175  0.01664653  0.25566455     0.07660
N801        N  0.79693310  0.95150757  0.30276933    -0.36180
N802        N  0.80641146  0.96063138  0.31457001    -0.28360
C803        C  0.81582487  0.94915160  0.32474484    -0.03600
C804        C  0.81252287  0.93190132  0.31884678     0.05010
C805        C  0.80027404  0.93394937  0.30502240     0.03100
H806        H  0.82418802  0.95319293  0.33581956     0.08210
H807        H  0.79430106  0.92344304  0.29708021     0.07040
C808        C  0.62499138  0.87445755  0.13106635     0.03070
C809        C  0.63267779  0.86664392  0.11576239    -0.13080
C810        C  0.62573407  0.85071071  0.10856037     0.00570
C811        C  0.61075203  0.84282707  0.11671906    -0.11600
C812        C  0.60280527  0.85059428  0.13183253     0.03070
C813        C  0.60999111  0.86637115  0.13897041    -0.11020
H814        H  0.64406311  0.87299470  0.10947566     0.08660
H815        H  0.60513573  0.83065471  0.11122076     0.06190
H816        H  0.60388601  0.87236894  0.15067835     0.06040
N817        N  0.17806902  0.68374793  0.95897558    -0.27340
N818        N  0.16738061  0.67332156  0.96841078    -0.35200
C819        C  0.15704051  0.66388855  0.95715969     0.01000
C820        C  0.16134414  0.66874173  0.93980353     0.07020
C821        C  0.17487743  0.68120306  0.94145521    -0.06080
H822        H  0.14730209  0.65405557  0.96133859     0.07690
H823        H  0.18175327  0.68807566  0.93072840     0.08890
Cu824      Cu  0.16728574  0.67246954  0.99608083     0.44170
Cu825      Cu  0.19609080  0.70120434  0.97039492     0.41990
Cu826      Cu  0.19637577  0.70300760  0.01929034     0.43880
N827        N  0.16893776  0.67404777  0.02366243    -0.34730
N828        N  0.17941445  0.68529647  0.03234720    -0.28990
C829        C  0.17691984  0.68311787  0.05008241    -0.05090
C830        C  0.16438065  0.66969339  0.05263496     0.07130
C831        C  0.15957114  0.66440073  0.03554798     0.00930
H832        H  0.18340594  0.69106995  0.06026706     0.08580
H833        H  0.14988955  0.65427508  0.03197946     0.07660
N834        N  0.21226195  0.71877022  0.00278937    -0.36180
N835        N  0.21216884  0.71811157  0.98508845    -0.28360
C836        C  0.22394436  0.73006599  0.97862124    -0.03600
C837        C  0.23183444  0.73862037  0.99294972     0.05010
C838        C  0.22414348  0.73114338  0.00804904     0.03100
H839        H  0.22654205  0.73231433  0.96454936     0.08210
H840        H  0.22693131  0.73444325  0.02186906     0.07040
N841        N  0.30974765  0.81456342  0.02548676    -0.27340
N842        N  0.29800311  0.80335672  0.03237768    -0.35200
C843        C  0.29874259  0.80401339  0.05028817     0.01000
C844        C  0.31179363  0.81609756  0.05508783     0.07020
C845        C  0.31838340  0.82274562  0.03901285    -0.06080
H846        H  0.28999260  0.79659693  0.05909730     0.07690
H847        H  0.32860340  0.83282528  0.03730010     0.08890
Cu848      Cu  0.28122590  0.78790570  0.01740985     0.44170
Cu849      Cu  0.31241999  0.81788261  0.99790950     0.41990
Cu850      Cu  0.28199814  0.79029459  0.96973437     0.43880
N851        N  0.26526801  0.77248528  0.00153385    -0.34730
N852        N  0.26526819  0.77297700  0.98385911    -0.28990
C853        C  0.25328844  0.76093906  0.97781975    -0.05090
C854        C  0.24553304  0.75265645  0.99253861     0.07130
C855        C  0.25346226  0.76032935  0.00727951     0.00930
H856        H  0.25046272  0.75841347  0.96384264     0.08580
H857        H  0.25094369  0.75729678  0.02121796     0.07660
N858        N  0.30044193  0.80885696  0.95996992    -0.36180
N859        N  0.31139586  0.81850581  0.97000403    -0.28360
C860        C  0.32160923  0.82872027  0.95925919    -0.03600
C861        C  0.31676032  0.82559136  0.94164496     0.05010
C862        C  0.30340626  0.81280430  0.94262499     0.03100
H863        H  0.33180207  0.83783885  0.96394570     0.08210
H864        H  0.29659944  0.80649145  0.93152953     0.07040
C865        C  0.10889343  0.63810911  0.13882254     0.03070
C866        C  0.11549390  0.62150739  0.14457859    -0.13080
C867        C  0.13091764  0.61424877  0.13690406     0.00570
C868        C  0.13935079  0.62309437  0.12270346    -0.11600
C869        C  0.13246147  0.63934755  0.11627742     0.03070
C870        C  0.11758572  0.64704192  0.12474645    -0.11020
H871        H  0.10860196  0.61410056  0.15496048     0.08660
H872        H  0.15105121  0.61719325  0.11650373     0.06190
H873        H  0.11256575  0.65984627  0.12010445     0.06040
N874        N  0.95868632  0.67001460  0.17330067    -0.27340
N875        N  0.94991854  0.68164862  0.18330969    -0.35200
C876        C  0.93229894  0.67995406  0.18014632     0.01000
C877        C  0.92988367  0.66672765  0.16739438     0.07020
C878        C  0.94691828  0.66054889  0.16360836    -0.06080
H879        H  0.92201971  0.68787646  0.18654949     0.07690
H880        H  0.95057753  0.64978643  0.15467137     0.08890
Cu881      Cu  0.96239205  0.69914371  0.20080970     0.44170
Cu882      Cu  0.98623470  0.66781681  0.17253414     0.41990
Cu883      Cu  0.01087984  0.69720970  0.20146369     0.43880
N884        N  0.97833811  0.71469384  0.21729961    -0.34730
N885        N  0.99599894  0.71404931  0.21737423    -0.28990
C886        C  0.00229544  0.72563900  0.22956333    -0.05090
C887        C  0.98789223  0.73387944  0.23762090     0.07130
C888        C  0.97290606  0.72666115  0.22955849     0.00930
H889        H  0.01630745  0.72766809  0.23250456     0.08580
H890        H  0.95907635  0.72977555  0.23242925     0.07660
N891        N  0.02285337  0.67974885  0.18386181    -0.36180
N892        N  0.01383971  0.66913855  0.17299357    -0.28360
C893        C  0.02545255  0.66005363  0.16271738    -0.03600
C894        C  0.04255975  0.66527349  0.16738059     0.05010
C895        C  0.04043542  0.67761227  0.18095211     0.03100
H896        H  0.02171182  0.65030958  0.15270041     0.08210
H897        H  0.05087102  0.68475757  0.18796524     0.07040
N898        N  0.95952740  0.81159371  0.31511433    -0.27340
N899        N  0.95139733  0.79866140  0.30631097    -0.35200
C900        C  0.93364437  0.80045370  0.30815829     0.01000
C901        C  0.93027654  0.81559551  0.31827894     0.07020
C902        C  0.94709533  0.82219530  0.32259202    -0.06080
H903        H  0.92406609  0.79106788  0.30283224     0.07690
H904        H  0.95012925  0.83384099  0.33061072     0.08890
Cu905      Cu  0.96467664  0.78005079  0.29109079     0.44170
Cu906      Cu  0.98713485  0.81363860  0.31678581     0.41990
Cu907      Cu  0.01271735  0.78397662  0.28771711     0.43880
N908        N  0.97996566  0.76543859  0.27355426    -0.34730
N909        N  0.99752733  0.76673125  0.27217560    -0.28990
C910        C  0.00315441  0.75561490  0.25919000    -0.05090
C911        C  0.98835055  0.74710746  0.25207537     0.07130
C912        C  0.97390472  0.75365799  0.26146438     0.00930
H913        H  0.01694194  0.75400607  0.25513420     0.08580
H914        H  0.95998733  0.75018737  0.25966045     0.07660
N915        N  0.02414266  0.80234937  0.30509899    -0.36180
N916        N  0.01485246  0.81281753  0.31590489    -0.28360
C917        C  0.02622192  0.82277964  0.32561976    -0.03600
C918        C  0.04354844  0.81871973  0.32043505     0.05010
C919        C  0.04166142  0.80553256  0.30753863     0.03100
H920        H  0.02207222  0.83204014  0.33591547     0.08210
H921        H  0.05225659  0.79881028  0.30033287     0.07040
C922        C  0.84048030  0.63669350  0.11729509     0.03070
C923        C  0.85499512  0.64544907  0.12534961    -0.13080
C924        C  0.86341069  0.63818176  0.14047759     0.00570
C925        C  0.85712492  0.62209468  0.14774518    -0.11600
C926        C  0.84267645  0.61314046  0.13985354     0.03070
C927        C  0.83443403  0.62048193  0.12461835    -0.11020
H928        H  0.85998464  0.65782147  0.11966300     0.08660
H929        H  0.86388301  0.61620655  0.15917515     0.06190
H930        H  0.82352319  0.61338047  0.11829227     0.06040
N931        N  0.80605197  0.96659123  0.66932147    -0.27340
N932        N  0.79420939  0.95774932  0.67900395    -0.35200
C933        C  0.79649966  0.94008009  0.67635160     0.01000
C934        C  0.81027631  0.93770254  0.66419379     0.07020
C935        C  0.81612140  0.95481716  0.66018264    -0.06080
H936        H  0.78857027  0.92973371  0.68262602     0.07690
H937        H  0.82704322  0.95847486  0.65143912     0.08890
Cu938      Cu  0.77530045  0.97038773  0.69496043     0.44170
Cu939      Cu  0.80780017  0.99428766  0.66884305     0.41990
Cu940      Cu  0.77299086  0.01893031  0.69214259     0.43880
N941        N  0.75754454  0.98604873  0.70951917    -0.34730
N942        N  0.75656212  0.00368924  0.70846573    -0.28990
C943        C  0.74406564  0.00959348  0.72002261    -0.05090
C944        C  0.73686172  0.99494672  0.72873074     0.07130
C945        C  0.74569477  0.98026795  0.72172089     0.00930
H946        H  0.74071960  0.02351846  0.72212636     0.08580
H947        H  0.74386595  0.96638819  0.72539606     0.07660
N948        N  0.79301980  0.03093982  0.67722303    -0.36180
N949        N  0.80606021  0.02199173  0.66934530    -0.28360
C950        C  0.81726214  0.03368847  0.66157778    -0.03600
C951        C  0.81105598  0.05090753  0.66470651     0.05010
C952        C  0.79546517  0.04854954  0.67447182     0.03100
H953        H  0.82908613  0.02988464  0.65416505     0.08210
H954        H  0.78624858  0.05874511  0.67893824     0.07040
N955        N  0.66279512  0.96090584  0.80827875    -0.27340
N956        N  0.67531775  0.95370897  0.79814725    -0.35200
C957        C  0.67570886  0.93595311  0.80088914     0.01000
C958        C  0.66282079  0.93164043  0.81347418     0.07020
C959        C  0.65467152  0.94784159  0.81760098    -0.06080
H960        H  0.68486791  0.92688285  0.79431143     0.07690
H961        H  0.64350926  0.95007897  0.82648874     0.08890
Cu962      Cu  0.69099738  0.96844742  0.78096702     0.44170
Cu963      Cu  0.65853334  0.98835002  0.80957530     0.41990
Cu964      Cu  0.68622477  0.01671876  0.78053107     0.43880
N965        N  0.70484027  0.98504040  0.76388142    -0.34730
N966        N  0.70331356  0.00266283  0.76344922    -0.28990
C967        C  0.71440954  0.00908249  0.75074952    -0.05090
C968        C  0.72322219  0.99474034  0.74292747     0.07130
C969        C  0.71679337  0.97977025  0.75158856     0.00930
H970        H  0.71601515  0.02310661  0.74754570     0.08580
H971        H  0.72057775  0.96599738  0.74924563     0.07660
N972        N  0.66835661  0.02647526  0.79969755    -0.36180
N973        N  0.65849785  0.01616047  0.81016599    -0.28360
C974        C  0.64892179  0.02654121  0.82131312    -0.03600
C975        C  0.65260979  0.04432087  0.81757177     0.05010
C976        C  0.66516446  0.04371004  0.80390260     0.03100
H977        H  0.64029529  0.02140629  0.83171901     0.08210
H978        H  0.67153168  0.05499955  0.79746927     0.07040
N979        N  0.95980151  0.81434228  0.67176940    -0.27340
N980        N  0.95119885  0.80378806  0.68303238    -0.35200
C981        C  0.93350320  0.80619788  0.68092221     0.01000
C982        C  0.93078815  0.81873641  0.66749608     0.07020
C983        C  0.94780621  0.82372265  0.66215233    -0.06080
H984        H  0.92342644  0.79959413  0.68890961     0.07690
H985        H  0.95123105  0.83345256  0.65198422     0.08890
Cu986      Cu  0.96400706  0.78665964  0.70073214     0.44170
Cu987      Cu  0.98745038  0.81564108  0.67029534     0.41990
Cu988      Cu  0.01261116  0.78660168  0.70018320     0.43880
N989        N  0.97966229  0.77031440  0.71680666    -0.34730
N990        N  0.99734092  0.77019848  0.71662045    -0.28990
C991        C  0.00325034  0.75804736  0.72856629    -0.05090
C992        C  0.98857607  0.75019371  0.73663544     0.07130
C993        C  0.97386160  0.75828291  0.72886018     0.00930
H994        H  0.01719081  0.75519469  0.73119053     0.08580
H995        H  0.95994062  0.75564161  0.73172073     0.07660
N996        N  0.02436793  0.80429892  0.68225150    -0.36180
N997        N  0.01514328  0.81481269  0.67138477    -0.28360
C998        C  0.02656827  0.82468425  0.66164630    -0.03600
C999        C  0.04386267  0.82009562  0.66644574     0.05010
C1000       C  0.04193059  0.80723410  0.67969662     0.03100
H1001       H  0.02256065  0.83450363  0.65176282     0.08210
H1002       H  0.05245255  0.80078153  0.68727041     0.07040
N1003       N  0.96015022  0.67082729  0.81412014    -0.27340
N1004       N  0.95137064  0.68289121  0.80460517    -0.35200
C1005       C  0.93377384  0.68124701  0.80792385     0.01000
C1006       C  0.93133910  0.66755901  0.82024323     0.07020
C1007       C  0.94839735  0.66109090  0.82359689    -0.06080
H1008       H  0.92351249  0.68952610  0.80191724     0.07690
H1009       H  0.95209837  0.64994895  0.83206724     0.08890
Cu1010     Cu  0.96387686  0.70079021  0.78743405     0.44170
Cu1011     Cu  0.98775670  0.66865108  0.81453850     0.41990
Cu1012     Cu  0.01249032  0.69905007  0.78621326     0.43880
N1013       N  0.97953310  0.71659291  0.77080324    -0.34730
N1014       N  0.99719790  0.71596319  0.77034835    -0.28990
C1015       C  0.00314954  0.72780493  0.75815749    -0.05090
C1016       C  0.98852852  0.73625719  0.75057178     0.07130
C1017       C  0.97378488  0.72882592  0.75888808     0.00930
H1018       H  0.01708874  0.73004814  0.75505132     0.08580
H1019       H  0.95988607  0.73204972  0.75648222     0.07660
N1020       N  0.02448411  0.68106875  0.80365747    -0.36180
N1021       N  0.01540489  0.67007201  0.81410932    -0.28360
C1022       C  0.02694798  0.66060273  0.82417165    -0.03600
C1023       C  0.04413477  0.66569406  0.81966537     0.05010
C1024       C  0.04206593  0.67879956  0.80670737     0.03100
H1025       H  0.02310922  0.65071920  0.83403840     0.08210
H1026       H  0.05251937  0.68643241  0.80026355     0.07040
N1027       N  0.45906395  0.66579383  0.30943356    -0.27340
N1028       N  0.45118358  0.67916308  0.30097417    -0.35200
C1029       C  0.43358386  0.67893294  0.30463813     0.01000
C1030       C  0.42993707  0.66435270  0.31561644     0.07020
C1031       C  0.44659016  0.65647079  0.31843381    -0.06080
H1032       H  0.42443403  0.68911940  0.30007864     0.07690
H1033       H  0.44952424  0.64488093  0.32661110     0.08890
Cu1034     Cu  0.46473359  0.69680867  0.28441832     0.44170
Cu1035     Cu  0.48669698  0.66222514  0.30965922     0.41990
Cu1036     Cu  0.51283240  0.69515203  0.28430133     0.43880
N1037       N  0.48049971  0.71171541  0.26714754    -0.34730
N1038       N  0.49816368  0.71130336  0.26702506    -0.28990
C1039       C  0.50416291  0.72254345  0.25424098    -0.05090
C1040       C  0.48951230  0.73031535  0.24594253     0.07130
C1041       C  0.47477432  0.72310409  0.25445361     0.00930
H1042       H  0.51811181  0.72487494  0.25124565     0.08580
H1043       H  0.46086110  0.72598743  0.25172802     0.07660
N1044       N  0.52372104  0.67687772  0.30226597    -0.36180
N1045       N  0.51442707  0.66458550  0.31094345    -0.28360
C1046       C  0.52567499  0.65480549  0.32109403    -0.03600
C1047       C  0.54287343  0.66144715  0.31902563     0.05010
C1048       C  0.54104528  0.67532906  0.30681469     0.03100
H1049       H  0.52155467  0.64347935  0.32907914     0.08210
H1050       H  0.55156057  0.68378725  0.30162473     0.07040
N1051       N  0.45500130  0.80726550  0.16884354    -0.27340
N1052       N  0.44771044  0.79631729  0.18063680    -0.35200
C1053       C  0.42993107  0.79891612  0.18089955     0.01000
C1054       C  0.42577760  0.81236098  0.16882283     0.07020
C1055       C  0.44201317  0.81719024  0.16127683    -0.06080
H1056       H  0.42073505  0.79130502  0.18905802     0.07690
H1057       H  0.44423747  0.82729594  0.15113788     0.08890
Cu1058     Cu  0.46241597  0.77874485  0.19607899     0.44170
Cu1059     Cu  0.48239841  0.80839875  0.16437516     0.41990
Cu1060     Cu  0.51064431  0.78217529  0.19499091     0.43880
N1061       N  0.47923870  0.76312608  0.21146816    -0.34730
N1062       N  0.49687768  0.76419888  0.21135888    -0.28990
C1063       C  0.50346930  0.75244355  0.22341609    -0.05090
C1064       C  0.48922008  0.74370840  0.23144679     0.07130
C1065       C  0.47412899  0.75082016  0.22350199     0.00930
H1066       H  0.51752395  0.75063100  0.22632924     0.08580
H1067       H  0.46036205  0.74752759  0.22642449     0.07660
N1068       N  0.52031826  0.80083893  0.17655633    -0.36180
N1069       N  0.51015864  0.80961779  0.16500251    -0.28360
C1070       C  0.52057278  0.82010847  0.15475047    -0.03600
C1071       C  0.53818947  0.81834917  0.16036236     0.05010
C1072       C  0.53743159  0.80580123  0.17410368     0.03100
H1073       H  0.51553063  0.82813230  0.14382378     0.08210
H1074       H  0.54852463  0.80071856  0.18190524     0.07040
C1075       C  0.34149494  0.63971663  0.37160115     0.03070
C1076       C  0.33378834  0.62426878  0.36431074    -0.13080
C1077       C  0.34107955  0.61624611  0.34899019     0.00570
C1078       C  0.35597303  0.62406885  0.34068553    -0.11600
C1079       C  0.36391874  0.63941236  0.34797179     0.03070
C1080       C  0.35660586  0.64725282  0.36340574    -0.11020
H1081       H  0.32223546  0.61833442  0.37073549     0.08660
H1082       H  0.36180603  0.61782867  0.32896412     0.06190
H1083       H  0.36293417  0.65888435  0.36928145     0.06040
N1084       N  0.31037889  0.67395189  0.46747915    -0.27340
N1085       N  0.29749032  0.68205026  0.45846120    -0.35200
C1086       C  0.29929101  0.67814703  0.44095650     0.01000
C1087       C  0.31398461  0.66696228  0.43882363     0.07020
C1088       C  0.32080740  0.66489174  0.45597741    -0.06080
H1089       H  0.29049731  0.68306253  0.43054054     0.07690
H1090       H  0.33269949  0.65766991  0.45991804     0.08890
Cu1091     Cu  0.27851469  0.69851304  0.47051209     0.44170
Cu1092     Cu  0.31286453  0.67472521  0.49511996     0.41990
Cu1093     Cu  0.27997113  0.70034684  0.51926240     0.43880
N1094       N  0.26234491  0.71513838  0.48596332    -0.34730
N1095       N  0.26287367  0.71570630  0.50366363    -0.28990
C1096       C  0.25115055  0.72805255  0.50949682    -0.05090
C1097       C  0.24287504  0.73567770  0.49478313     0.07130
C1098       C  0.25027923  0.72717649  0.48008289     0.00930
H1099       H  0.24901803  0.73138632  0.52342443     0.08580
H1100       H  0.24726335  0.72965989  0.46612879     0.07660
N1101       N  0.29913789  0.68458415  0.53171127    -0.36180
N1102       N  0.31128291  0.67531572  0.52282884    -0.28360
C1103       C  0.32149358  0.66626756  0.53458176    -0.03600
C1104       C  0.31564149  0.67016187  0.55173333     0.05010
C1105       C  0.30132080  0.68170827  0.54936855     0.03100
H1106       H  0.33231558  0.65738810  0.53089824     0.08210
H1107       H  0.29275651  0.68721341  0.55964373     0.07040
N1108       N  0.16413916  0.81377167  0.46643465    -0.27340
N1109       N  0.17633094  0.80449599  0.45764322    -0.35200
C1110       C  0.17478897  0.80806258  0.44004485     0.01000
C1111       C  0.16103368  0.82030847  0.43762784     0.07020
C1112       C  0.15442889  0.82336193  0.45469310    -0.06080
H1113       H  0.18317585  0.80226917  0.42977323     0.07690
H1114       H  0.14322489  0.83171159  0.45840124     0.08890
Cu1115     Cu  0.19426378  0.78736084  0.47020333     0.44170
Cu1116     Cu  0.16197219  0.81384487  0.49406642     0.41990
Cu1117     Cu  0.19356851  0.78697830  0.51912893     0.43880
N1118       N  0.21004562  0.77068532  0.48590237    -0.34730
N1119       N  0.20986122  0.77054106  0.50362232    -0.28990
C1120       C  0.22152988  0.75811895  0.50950132    -0.05090
C1121       C  0.22936620  0.75004686  0.49478778     0.07130
C1122       C  0.22177424  0.75834195  0.48006427     0.00930
H1123       H  0.22403082  0.75513325  0.52345959     0.08580
H1124       H  0.22452730  0.75561256  0.46611400     0.07660
N1125       N  0.17570540  0.80476192  0.53097981    -0.36180
N1126       N  0.16415016  0.81444774  0.52169694    -0.28360
C1127       C  0.15477620  0.82484153  0.53296917    -0.03600
C1128       C  0.16079217  0.82173604  0.55022396     0.05010
C1129       C  0.17391264  0.80872964  0.54847859     0.03100
H1130       H  0.14422087  0.83386521  0.52886173     0.08210
H1131       H  0.18173827  0.80276650  0.55912270     0.07040
C1132       C  0.13136683  0.87562225  0.63793713     0.03070
C1133       C  0.11580334  0.86822200  0.64535887    -0.13080
C1134       C  0.10771511  0.85319458  0.63750011     0.00570
C1135       C  0.11563265  0.84544088  0.62229983    -0.11600
C1136       C  0.13155548  0.85233464  0.61514136     0.03070
C1137       C  0.13928982  0.86751329  0.62300192    -0.11020
H1138       H  0.11007989  0.87413268  0.65729373     0.08660
H1139       H  0.10927698  0.83409906  0.61591273     0.06190
H1140       H  0.15140955  0.87313578  0.61739890     0.06040
N1141       N  0.17713114  0.95933245  0.68495257    -0.27340
N1142       N  0.16871221  0.96838583  0.67229128    -0.35200
C1143       C  0.16002825  0.95682294  0.66164574     0.01000
C1144       C  0.16312648  0.93958103  0.66782478     0.07020
C1145       C  0.17385972  0.94177949  0.68281461    -0.06080
H1146       H  0.15201178  0.96072867  0.65022395     0.07690
H1147       H  0.17864243  0.93152052  0.69183767     0.08890
Cu1148     Cu  0.16881603  0.99605696  0.67034670     0.44170
Cu1149     Cu  0.19330297  0.97120233  0.70404087     0.41990
Cu1150     Cu  0.19699302  0.01974112  0.70125256     0.43880
N1151       N  0.17007799  0.02372596  0.67164345    -0.34730
N1152       N  0.18046056  0.03249721  0.68292813    -0.28990
C1153       C  0.17783721  0.05018771  0.68073420    -0.05090
C1154       C  0.16523815  0.05265931  0.66733781     0.07130
C1155       C  0.16052948  0.03556531  0.66201745     0.00930
H1156       H  0.18418308  0.06042276  0.68873444     0.08580
H1157       H  0.15073183  0.03198267  0.65198514     0.07660
N1158       N  0.21201998  0.00382989  0.71838507    -0.36180
N1159       N  0.21062314  0.98622821  0.71954631    -0.28360
C1160       C  0.22249898  0.98012619  0.73166004    -0.03600
C1161       C  0.23178032  0.99459711  0.73841140     0.05010
C1162       C  0.22478971  0.00939035  0.72972646     0.03100
H1163       H  0.22435232  0.96618466  0.73511350     0.08210
H1164       H  0.22877058  0.02319524  0.73138526     0.07040
N1165       N  0.31016726  0.02679863  0.81446185    -0.27340
N1166       N  0.30038009  0.03413403  0.80167821    -0.35200
C1167       C  0.30214331  0.05198772  0.80226580     0.01000
C1168       C  0.31372384  0.05617107  0.81603883     0.07020
C1169       C  0.31841790  0.03988959  0.82363690    -0.06080
H1170       H  0.29503890  0.06123169  0.79365571     0.07690
H1171       H  0.32711573  0.03773777  0.83502260     0.08890
Cu1172     Cu  0.28423599  0.01975146  0.78473081     0.44170
Cu1173     Cu  0.31132644  0.99929945  0.81855456     0.41990
Cu1174     Cu  0.28241910  0.97189033  0.78969438     0.43880
N1175       N  0.26730350  0.00372473  0.77020213    -0.34730
N1176       N  0.26632944  0.98615453  0.77190711    -0.28990
C1177       C  0.25355064  0.98002143  0.76077550    -0.05090
C1178       C  0.24623221  0.99451170  0.75175361     0.07130
C1179       C  0.25528425  0.00927349  0.75806536     0.00930
H1180       H  0.24980380  0.96611367  0.75945612     0.08580
H1181       H  0.25322032  0.02309644  0.75426941     0.07660
N1182       N  0.30009530  0.96158853  0.80868355    -0.36180
N1183       N  0.31045897  0.97148258  0.81906310    -0.28360
C1184       C  0.32042439  0.96063171  0.82944139    -0.03600
C1185       C  0.31605551  0.94304705  0.82560170     0.05010
C1186       C  0.30322871  0.94419922  0.81223740     0.03100
H1187       H  0.33023255  0.96522370  0.83903831     0.08210
H1188       H  0.29699454  0.93322848  0.80518755     0.07040
C1189       C  0.10813643  0.13894451  0.63795114     0.03070
C1190       C  0.11515678  0.14558611  0.62188855    -0.13080
C1191       C  0.13131446  0.13891512  0.61507101     0.00570
C1192       C  0.13968510  0.12452311  0.62389327    -0.11600
C1193       C  0.13232901  0.11719081  0.63957528     0.03070
C1194       C  0.11699081  0.12508089  0.64698461    -0.11020
H1195       H  0.10798962  0.15598262  0.61473430     0.08660
H1196       H  0.15180132  0.11880004  0.61837789     0.06190
H1197       H  0.11158353  0.12005338  0.65946999     0.06040
N1198       N  0.95876557  0.17236746  0.67257955    -0.27340
N1199       N  0.94969000  0.18322244  0.68318848    -0.35200
C1200       C  0.93209849  0.18107735  0.68007107     0.01000
C1201       C  0.93006594  0.16848648  0.66664764     0.07020
C1202       C  0.94724120  0.16313386  0.66236607    -0.06080
H1203       H  0.92159146  0.18838608  0.68682346     0.07690
H1204       H  0.95111422  0.15316904  0.65261556     0.08890
Cu1205     Cu  0.96179924  0.20101780  0.70068936     0.44170
Cu1206     Cu  0.98639208  0.17081090  0.67187800     0.41990
Cu1207     Cu  0.01001359  0.20517569  0.69564037     0.43880
N1208       N  0.97751752  0.21832338  0.71561899    -0.34730
N1209       N  0.99500182  0.21994186  0.71359230    -0.28990
C1210       C  0.00117377  0.23207854  0.72531894    -0.05090
C1211       C  0.98689291  0.23842705  0.73516627     0.07130
C1212       C  0.97209560  0.22945116  0.72867593     0.00930
H1213       H  0.01505736  0.23588682  0.72662362     0.08580
H1214       H  0.95840768  0.23083220  0.73313117     0.07660
N1215       N  0.02256192  0.18632752  0.67975170    -0.36180
N1216       N  0.01396016  0.17316597  0.67176111    -0.28360
C1217       C  0.02588514  0.16249785  0.66358748    -0.03600
C1218       C  0.04291304  0.16922048  0.66656913     0.05010
C1219       C  0.04016791  0.18456104  0.67665243     0.03100
H1220       H  0.02237406  0.15064251  0.65608621     0.08210
H1221       H  0.05005942  0.19402893  0.68119470     0.07040
N1222       N  0.96050603  0.31901513  0.81116995    -0.27340
N1223       N  0.95200371  0.30549097  0.80368826    -0.35200
C1224       C  0.93447418  0.30693895  0.80723481     0.01000
C1225       C  0.93167318  0.32216124  0.81747012     0.07020
C1226       C  0.94855283  0.32962235  0.81940836    -0.06080
H1227       H  0.92450402  0.29752930  0.80265922     0.07690
H1228       H  0.95204056  0.34202922  0.82589364     0.08890
Cu1229     Cu  0.96436036  0.28636824  0.78800478     0.44170
Cu1230     Cu  0.98805568  0.32178368  0.81070296     0.41990
Cu1231     Cu  0.01230426  0.28984006  0.78343343     0.43880
N1232       N  0.97923170  0.27082188  0.77063726    -0.34730
N1233       N  0.99674694  0.27220058  0.76879060    -0.28990
C1234       C  0.00220111  0.26078417  0.75600546    -0.05090
C1235       C  0.98738033  0.25185018  0.74950859     0.07130
C1236       C  0.97305419  0.25852340  0.75908099     0.00930
H1237       H  0.01590985  0.25925820  0.75166254     0.08580
H1238       H  0.95913128  0.25492510  0.75760620     0.07660
N1239       N  0.02453947  0.30834719  0.80003579    -0.36180
N1240       N  0.01569110  0.31988016  0.81011011    -0.28360
C1241       C  0.02744115  0.32936340  0.81986153    -0.03600
C1242       C  0.04451235  0.32372374  0.81550937     0.05010
C1243       C  0.04215846  0.31028983  0.80300025     0.03100
H1244       H  0.02381866  0.33956084  0.82947130     0.08210
H1245       H  0.05244264  0.30215878  0.79687717     0.07040
C1246       C  0.86486978  0.13906787  0.63706590     0.03070
C1247       C  0.85750199  0.12317548  0.64384585    -0.13080
C1248       C  0.84226538  0.11566737  0.63595026     0.00570
C1249       C  0.83452934  0.12385205  0.62089772    -0.11600
C1250       C  0.84226669  0.13921279  0.61334020     0.03070
C1251       C  0.85720069  0.14689257  0.62174759    -0.11020
H1252       H  0.86376558  0.11642308  0.65506436     0.08660
H1253       H  0.82257743  0.11815593  0.61503577     0.06190
H1254       H  0.86307857  0.15890044  0.61615140     0.06040
N1255       N  0.66532084  0.46295361  0.31340858    -0.27340
N1256       N  0.67625516  0.45401989  0.30276441    -0.35200
C1257       C  0.67297415  0.43640284  0.30434911     0.01000
C1258       C  0.65930560  0.43413573  0.31658819     0.07020
C1259       C  0.65490319  0.45123080  0.32219074    -0.06080
H1260       H  0.68046929  0.42600981  0.29762300     0.07690
H1261       H  0.64499488  0.45486159  0.33209236     0.08890
Cu1262     Cu  0.69592705  0.46606362  0.28753403     0.44170
Cu1263     Cu  0.66526759  0.49063651  0.31576267     0.41990
Cu1264     Cu  0.70031847  0.51411130  0.29226284     0.43880
N1265       N  0.71470434  0.48121400  0.27404557    -0.34730
N1266       N  0.71621814  0.49875237  0.27570076    -0.28990
C1267       C  0.72910044  0.50460326  0.26463613    -0.05090
C1268       C  0.73608144  0.49001553  0.25570407     0.07130
C1269       C  0.72670559  0.47539626  0.26199932     0.00930
H1270       H  0.73295025  0.51846630  0.26311404     0.08580
H1271       H  0.72820401  0.46160562  0.25787978     0.07660
N1272       N  0.68097023  0.52680456  0.30732769    -0.36180
N1273       N  0.66782450  0.51829666  0.31547276    -0.28360
C1274       C  0.65695671  0.53040210  0.32311577    -0.03600
C1275       C  0.66351309  0.54740256  0.31956134     0.05010
C1276       C  0.67894970  0.54450730  0.30973449     0.03100
H1277       H  0.64505114  0.52704388  0.33060361     0.08210
H1278       H  0.68827856  0.55440907  0.30489015     0.07040
N1279       N  0.80922328  0.46291350  0.17289199    -0.27340
N1280       N  0.80059757  0.45393036  0.18541074    -0.35200
C1281       C  0.80226839  0.43631199  0.18223270     0.01000
C1282       C  0.81205272  0.43401248  0.16662206     0.07020
C1283       C  0.81632378  0.45126656  0.16121900    -0.06080
H1284       H  0.79710188  0.42607864  0.19102394     0.07690
H1285       H  0.82410586  0.45515530  0.14965713     0.08890
Cu1286     Cu  0.78600231  0.46606616  0.20550246     0.44170
Cu1287     Cu  0.81160422  0.49051830  0.17254938     0.41990
Cu1288     Cu  0.78402577  0.51457248  0.20389214     0.43880
N1289       N  0.76991747  0.48141235  0.22193492    -0.34730
N1290       N  0.76923596  0.49908147  0.22138846    -0.28990
C1291       C  0.75729827  0.50487256  0.23350814    -0.05090
C1292       C  0.75004315  0.49011741  0.24194260     0.07130
C1293       C  0.75829982  0.47546702  0.23428666     0.00930
H1294       H  0.75394227  0.51877345  0.23575154     0.08580
H1295       H  0.75597180  0.46151262  0.23734244     0.07660
N1296       N  0.80110620  0.52694012  0.18601443    -0.36180
N1297       N  0.81165715  0.51812274  0.17493522    -0.28360
C1298       C  0.82144614  0.52993139  0.16557535    -0.03600
C1299       C  0.81686286  0.54707553  0.17101248     0.05010
C1300       C  0.80369813  0.54458937  0.18382951     0.03100
H1301       H  0.83112003  0.52627089  0.15545875     0.08210
H1302       H  0.79610011  0.55475760  0.19073866     0.07040
C1303       C  0.60602670  0.34704948  0.34682773     0.03070
C1304       C  0.61432848  0.36218087  0.33944296    -0.13080
C1305       C  0.63034870  0.36883923  0.34676724     0.00570
C1306       C  0.63813230  0.35974167  0.36130935    -0.11600
C1307       C  0.62949014  0.34507761  0.36920800     0.03070
C1308       C  0.61355344  0.33864789  0.36182619    -0.11020
H1309       H  0.60802644  0.36900926  0.32828421     0.08660
H1310       H  0.65074346  0.36424808  0.36680111     0.06190
H1311       H  0.60680667  0.32738608  0.36798061     0.06040
N1312       N  0.66640441  0.31503793  0.46382279    -0.27340
N1313       N  0.67846843  0.30577947  0.45484126    -0.35200
C1314       C  0.67504985  0.30714063  0.43722597     0.01000
C1315       C  0.65976947  0.31740683  0.43490948     0.07020
C1316       C  0.65479951  0.32229228  0.45214381    -0.06080
H1317       H  0.68347155  0.30143682  0.42696953     0.07690
H1318       H  0.64358633  0.33059297  0.45597960     0.08890
Cu1319     Cu  0.69839476  0.29080482  0.46680763     0.44170
Cu1320     Cu  0.66647444  0.31780996  0.49148028     0.41990
Cu1321     Cu  0.69690152  0.28865143  0.51507308     0.43880
N1322       N  0.71479672  0.27449161  0.48197253    -0.34730
N1323       N  0.71423234  0.27374312  0.49964452    -0.28990
C1324       C  0.72623969  0.26168592  0.50545066    -0.05090
C1325       C  0.73463256  0.25441523  0.49068980     0.07130
C1326       C  0.72707763  0.26279653  0.47601534     0.00930
H1327       H  0.72844391  0.25828019  0.51936358     0.08580
H1328       H  0.73013986  0.26049364  0.46205192     0.07660
N1329       N  0.67956918  0.30597511  0.52772145    -0.36180
N1330       N  0.66890950  0.31719147  0.51916256    -0.28360
C1331       C  0.65985096  0.32692127  0.53126601    -0.03600
C1332       C  0.66504954  0.32156277  0.54830897     0.05010
C1333       C  0.67739917  0.30804073  0.54544411     0.03100
H1334       H  0.65005097  0.33703436  0.52787566     0.08210
H1335       H  0.68395850  0.29980647  0.55537570     0.07040
N1336       N  0.81206385  0.17526984  0.46317034    -0.27340
N1337       N  0.79946643  0.18418506  0.45452675    -0.35200
C1338       C  0.80039566  0.18028483  0.43699204     0.01000
C1339       C  0.81453938  0.16860177  0.43431889     0.07020
C1340       C  0.82149558  0.16562349  0.45130108    -0.06080
H1341       H  0.79106991  0.18526235  0.42711097     0.07690
H1342       H  0.83257363  0.15698661  0.45482740     0.08890
Cu1343     Cu  0.78187080  0.20162134  0.46673969     0.44170
Cu1344     Cu  0.81527365  0.17580886  0.49078346     0.41990
Cu1345     Cu  0.78539855  0.20515697  0.51482423     0.43880
N1346       N  0.76709798  0.21936833  0.48189134    -0.34730
N1347       N  0.76831896  0.22054954  0.49950512    -0.28990
C1348       C  0.75697591  0.23319937  0.50533623    -0.05090
C1349       C  0.74830044  0.24036340  0.49064984     0.07130
C1350       C  0.75502818  0.23133773  0.47599371     0.00930
H1351       H  0.75525422  0.23691426  0.51922426     0.08580
H1352       H  0.75136612  0.23320901  0.46209900     0.07660
N1353       N  0.80340979  0.18829128  0.52724298    -0.36180
N1354       N  0.81437445  0.17752220  0.51851692    -0.28360
C1355       C  0.82367007  0.16777246  0.53047421    -0.03600
C1356       C  0.81841875  0.17279099  0.54754185     0.05010
C1357       C  0.80543593  0.18573033  0.54493997     0.03100
H1358       H  0.83330699  0.15754496  0.52699555     0.08210
H1359       H  0.79747174  0.19227862  0.55508729     0.07040
C1360       C  0.84065584  0.34635854  0.11160449     0.03070
C1361       C  0.85578221  0.33880783  0.11996076    -0.13080
C1362       C  0.86285948  0.34628449  0.13573525     0.00570
C1363       C  0.85419435  0.36104464  0.14344740    -0.11600
C1364       C  0.83957246  0.36907943  0.13489780     0.03070
C1365       C  0.83291507  0.36181270  0.11898112    -0.11020
H1366       H  0.86220829  0.32724879  0.11402536     0.08660
H1367       H  0.85905175  0.36659311  0.15592999     0.06190
H1368       H  0.82193964  0.36842535  0.11217211     0.06040
C1369       C  0.33239070  0.86142607  0.15014938     0.03070
C1370       C  0.32409420  0.85416564  0.13494877    -0.13080
C1371       C  0.33170635  0.83959302  0.12595618     0.00570
C1372       C  0.34705323  0.83144463  0.13299829    -0.11600
C1373       C  0.35602161  0.83893802  0.14765479     0.03070
C1374       C  0.34842644  0.85375863  0.15639938    -0.11020
H1375       H  0.31230045  0.86055372  0.12943097     0.08660
H1376       H  0.35273884  0.81992993  0.12627969     0.06190
H1377       H  0.35538772  0.85981859  0.16757657     0.06040
C1378       C  0.84012549  0.11062931  0.34737662     0.03070
C1379       C  0.85475335  0.11883673  0.33893219    -0.13080
C1380       C  0.86261066  0.13422377  0.34626880     0.00570
C1381       C  0.85512919  0.14190368  0.36166060    -0.11600
C1382       C  0.84030750  0.13411413  0.36999916     0.03070
C1383       C  0.83281473  0.11847857  0.36283259    -0.11020
H1384       H  0.86026156  0.11301537  0.32685095     0.08660
H1385       H  0.86111666  0.15376273  0.36745457     0.06190
H1386       H  0.82129314  0.11247929  0.36924051     0.06040
C1387       C  0.13401034  0.84737826  0.37009061     0.03070
C1388       C  0.14097054  0.86298218  0.36227517    -0.13080
C1389       C  0.13279378  0.87057159  0.34714725     0.00570
C1390       C  0.11780120  0.86222805  0.33960556    -0.11600
C1391       C  0.11062062  0.84668743  0.34732510     0.03070
C1392       C  0.11876152  0.83936958  0.36262887    -0.11020
H1393       H  0.15245598  0.86948159  0.36825432     0.08660
H1394       H  0.11148681  0.86806377  0.32789725     0.06190
H1395       H  0.11284760  0.82784429  0.36913908     0.06040
C1396       C  0.13449608  0.37018093  0.84834359     0.03070
C1397       C  0.14266341  0.36068275  0.86242083    -0.13080
C1398       C  0.13449511  0.34538220  0.86960000     0.00570
C1399       C  0.11870849  0.33888012  0.86187297    -0.11600
C1400       C  0.11043837  0.34809731  0.84776061     0.03070
C1401       C  0.11840327  0.36372787  0.84110747    -0.11020
H1402       H  0.15502876  0.36548604  0.86821013     0.08660
H1403       H  0.11267262  0.32681554  0.86716836     0.06190
H1404       H  0.11181347  0.37112068  0.83048292     0.06040
C1405       C  0.33214951  0.15116949  0.86237425     0.03070
C1406       C  0.34784636  0.15855150  0.85514646    -0.13080
C1407       C  0.35709045  0.14961568  0.84139327     0.00570
C1408       C  0.35022300  0.13332940  0.83498474    -0.11600
C1409       C  0.33418177  0.12622915  0.84164449     0.03070
C1410       C  0.32482243  0.13572488  0.85480094    -0.11020
H1411       H  0.35300986  0.17090733  0.86061575     0.08660
H1412       H  0.35772360  0.12584145  0.82509238     0.06190
H1413       H  0.31237184  0.13051062  0.86002156     0.06040
C1414       C  0.86313793  0.84202340  0.34589552     0.03070
C1415       C  0.85557848  0.83397770  0.36107556    -0.13080
C1416       C  0.84066388  0.84170373  0.36950326     0.00570
C1417       C  0.83280245  0.85704645  0.36187409    -0.11600
C1418       C  0.83994835  0.86478573  0.34632768     0.03070
C1419       C  0.85519031  0.85726276  0.33845587    -0.11020
H1420       H  0.86160729  0.82195688  0.36651978     0.08660
H1421       H  0.82150098  0.86337858  0.36837936     0.06190
H1422       H  0.86117842  0.86357805  0.32684365     0.06040
C1423       C  0.86249258  0.34610456  0.84223048     0.03070
C1424       C  0.85484594  0.36157648  0.83495478    -0.13080
C1425       C  0.83899469  0.36865942  0.84211012     0.00570
C1426       C  0.83054495  0.35967246  0.85630493    -0.11600
C1427       C  0.83857290  0.34459443  0.86413955     0.03070
C1428       C  0.85439591  0.33767788  0.85684878    -0.11020
H1429       H  0.86167719  0.36850628  0.82419513     0.08660
H1430       H  0.81822716  0.36490596  0.86185411     0.06190
H1431       H  0.86073070  0.32611385  0.86293714     0.06040
C1432       C  0.35004455  0.85628275  0.87839763     0.03070
C1433       C  0.36442396  0.84792331  0.86962379    -0.13080
C1434       C  0.37236237  0.85582062  0.85452986     0.00570
C1435       C  0.36504357  0.87166427  0.84743819    -0.11600
C1436       C  0.35035748  0.88000176  0.85572711     0.03070
C1437       C  0.34308753  0.87227732  0.87127128    -0.11020
H1438       H  0.36959684  0.83532556  0.87462288     0.08660
H1439       H  0.37063391  0.87731979  0.83531112     0.06190
H1440       H  0.33196262  0.87880710  0.87788362     0.06040
C1441       C  0.82762413  0.14261769  0.41835100    -0.09210
C1442       C  0.82043475  0.15997841  0.41742516     0.06990
C1443       C  0.81973443  0.16867788  0.40058015    -0.02980
C1444       C  0.82577612  0.15978404  0.38524270    -0.07430
C1445       C  0.83288960  0.14245377  0.38630405     0.06100
C1446       C  0.83403589  0.13398226  0.40308636    -0.02450
Br1447     Br  0.84573615  0.11139349  0.40625732    -0.02150
H1448       H  0.82853227  0.13573388  0.43108702     0.10010
H1449       H  0.82536344  0.16661245  0.37243565     0.08030
Br1450     Br  0.81255906  0.19316913  0.39753005    -0.02580
C1451       C  0.64464583  0.32059170  0.38605509    -0.09210
C1452       C  0.63644714  0.33744250  0.38604015     0.06990
C1453       C  0.63478248  0.34686531  0.40221401    -0.02980
C1454       C  0.64251621  0.34010109  0.41780868    -0.07430
C1455       C  0.65139466  0.32351537  0.41790226     0.06100
C1456       C  0.65182395  0.31339639  0.40185683    -0.02450
Br1457     Br  0.66034047  0.28918443  0.40066458    -0.02150
H1458       H  0.64529487  0.31294143  0.37375797     0.10010
H1459       H  0.64154145  0.34797649  0.42991777     0.08030
Br1460     Br  0.62101473  0.36843789  0.40398156    -0.02580
C1461       C  0.83424603  0.41743406  0.14832399    -0.09210
C1462       C  0.81819326  0.41710505  0.15811248     0.06990
C1463       C  0.80858078  0.40079459  0.15914922    -0.02980
C1464       C  0.81569362  0.38525438  0.15143270    -0.07430
C1465       C  0.83195225  0.38571659  0.14218891     0.06100
C1466       C  0.84093280  0.40206074  0.14016170    -0.02450
Br1467     Br  0.86187990  0.40427138  0.12556730    -0.02150
H1468       H  0.84178790  0.42970021  0.14698121     0.10010
H1469       H  0.80844650  0.37276021  0.15252215     0.08030
Br1470     Br  0.78513598  0.39876378  0.16936751    -0.02580
C1471       C  0.65117796  0.41527678  0.34250993    -0.09210
C1472       C  0.65239346  0.41715207  0.32391242     0.06990
C1473       C  0.64671009  0.40300244  0.31286394    -0.02980
C1474       C  0.63999730  0.38729561  0.32057451    -0.07430
C1475       C  0.63863204  0.38537521  0.33928168     0.06100
C1476       C  0.64439817  0.39969782  0.35026619    -0.02450
Br1477     Br  0.64232207  0.39993006  0.37584356    -0.02150
H1478       H  0.65543202  0.42612792  0.35112089     0.10010
H1479       H  0.63559736  0.37659443  0.31186189     0.08030
Br1480     Br  0.64636631  0.40497429  0.28724453    -0.02580
C1481       C  0.83250267  0.16606899  0.59603852    -0.09210
C1482       C  0.83504249  0.14742995  0.59667243     0.06990
C1483       C  0.83193535  0.13735069  0.58097298    -0.02980
C1484       C  0.82636789  0.14591066  0.56528543    -0.07430
C1485       C  0.82399689  0.16450455  0.56465132     0.06100
C1486       C  0.82724396  0.17465500  0.58022296    -0.02450
Br1487     Br  0.82652508  0.20033197  0.58038013    -0.02150
H1488       H  0.83503292  0.17408867  0.60784240     0.10010
H1489       H  0.82404876  0.13794577  0.55340054     0.08030
Br1490     Br  0.83643823  0.11215517  0.57929037    -0.02580
C1491       C  0.06250889  0.33193201  0.84218190    -0.09210
C1492       C  0.06146223  0.32989065  0.82353550     0.06990
C1493       C  0.07649538  0.33405070  0.81296965    -0.02980
C1494       C  0.09230512  0.33971953  0.82116107    -0.07430
C1495       C  0.09347326  0.34155771  0.83984266     0.06100
C1496       C  0.07827840  0.33773491  0.85039315    -0.02450
Br1497     Br  0.07770775  0.34133553  0.87585858    -0.02150
H1498       H  0.05096242  0.32902027  0.85042901     0.10010
H1499       H  0.10374520  0.34287221  0.81285286     0.08030
Br1500     Br  0.07582904  0.33374783  0.78727582    -0.02580
C1501       C  0.89864736  0.32458174  0.81422619    -0.09210
C1502       C  0.91414372  0.32885964  0.82407308     0.06990
C1503       C  0.91222793  0.33877363  0.84013526    -0.02980
C1504       C  0.89525366  0.34426337  0.84571137    -0.07430
C1505       C  0.88000429  0.33992561  0.83580412     0.06100
C1506       C  0.88170739  0.32993462  0.82001845    -0.02450
Br1507     Br  0.86119640  0.32283924  0.80634123    -0.02150
H1508       H  0.89962848  0.31702875  0.80191031     0.10010
H1509       H  0.89388644  0.35181878  0.85801524     0.08030
Br1510     Br  0.93155819  0.34424387  0.85611710    -0.02580
C1511       C  0.89909926  0.15709443  0.67039968    -0.09210
C1512       C  0.91319332  0.16173461  0.65892485     0.06990
C1513       C  0.91097201  0.15962931  0.64030878    -0.02980
C1514       C  0.89527954  0.15208013  0.63359972    -0.07430
C1515       C  0.88128373  0.14695494  0.64505215     0.06100
C1516       C  0.88319841  0.14986381  0.66366545    -0.02450
Br1517     Br  0.86433288  0.14535683  0.68050509    -0.02150
H1518       H  0.90050293  0.15900089  0.68471169     0.10010
H1519       H  0.89401225  0.15025422  0.61926712     0.08030
Br1520     Br  0.92817610  0.16815465  0.62325297    -0.02580
C1521       C  0.09195817  0.15571341  0.66155061    -0.09210
C1522       C  0.09145074  0.14648822  0.64526333     0.06990
C1523       C  0.07506845  0.14453071  0.63626213    -0.02980
C1524       C  0.05959029  0.15220308  0.64337287    -0.07430
C1525       C  0.05996870  0.16170783  0.65962891     0.06100
C1526       C  0.07645373  0.16320610  0.66887712    -0.02450
Br1527     Br  0.07891988  0.17382728  0.69213537    -0.02150
H1528       H  0.10451482  0.15696941  0.66868291     0.10010
H1529       H  0.04718156  0.15068266  0.63606947     0.08030
Br1530     Br  0.07299122  0.13067258  0.61473839    -0.02580
C1531       C  0.32819981  0.10479481  0.81687915    -0.09210
C1532       C  0.32790928  0.10846459  0.83533463     0.06990
C1533       C  0.32293284  0.09465812  0.84732918    -0.02980
C1534       C  0.31829093  0.07781660  0.84069844    -0.07430
C1535       C  0.31869750  0.07420751  0.82229804     0.06100
C1536       C  0.32388044  0.08783988  0.81032851    -0.02450
Br1537     Br  0.32706111  0.08370492  0.78515734    -0.02150
H1538       H  0.33221097  0.11509161  0.80748628     0.10010
H1539       H  0.31448140  0.06738722  0.85002991     0.08030
Br1540     Br  0.32358995  0.09712007  0.87294648    -0.02580
C1541       C  0.32333285  0.89627927  0.84477471    -0.09210
C1542       C  0.34188219  0.89625454  0.84782209     0.06990
C1543       C  0.35167904  0.91186352  0.84373508    -0.02980
C1544       C  0.34299875  0.92679841  0.83644862    -0.07430
C1545       C  0.32451257  0.92673706  0.83320873     0.06100
C1546       C  0.31460910  0.91130895  0.83768946    -0.02450
Br1547     Br  0.28902564  0.91037128  0.83601080    -0.02150
H1548       H  0.31551584  0.88454656  0.84809632     0.10010
H1549       H  0.35079343  0.93860329  0.83334969     0.08030
Br1550     Br  0.37661099  0.91430976  0.84899903    -0.02580
C1551       C  0.15900471  0.10047838  0.65078882    -0.09210
C1552       C  0.14046502  0.10098091  0.64775881     0.06990
C1553       C  0.13025246  0.08552339  0.65142886    -0.02980
C1554       C  0.13860521  0.07015321  0.65808361    -0.07430
C1555       C  0.15712318  0.06961948  0.66103172     0.06100
C1556       C  0.16738689  0.08498285  0.65723310    -0.02450
Br1557     Br  0.19299318  0.08515553  0.65881229    -0.02150
H1558       H  0.16708447  0.11211062  0.64776463     0.10010
H1559       H  0.13055832  0.05841116  0.66074469     0.08030
Br1560     Br  0.10515299  0.08384098  0.64619604    -0.02580
C1561       C  0.13847002  0.92368221  0.65231397    -0.09210
C1562       C  0.15541055  0.92283639  0.66043421     0.06990
C1563       C  0.16455489  0.90623120  0.66070513    -0.02980
C1564       C  0.15640490  0.89097240  0.65352692    -0.07430
C1565       C  0.13938826  0.89191259  0.64571642     0.06100
C1566       C  0.13058244  0.90852492  0.64481145    -0.02450
Br1567     Br  0.10844777  0.91158040  0.63223122    -0.02150
H1568       H  0.13128454  0.93625237  0.65164873     0.10010
H1569       H  0.16350091  0.87832340  0.65378722     0.08030
Br1570     Br  0.18870439  0.90352457  0.66899350    -0.02580
C1571       C  0.15111603  0.81895772  0.58197165    -0.09210
C1572       C  0.15405815  0.82991514  0.56697558     0.06990
C1573       C  0.15033868  0.84839582  0.56827704    -0.02980
C1574       C  0.14312152  0.85536830  0.58407005    -0.07430
C1575       C  0.13962881  0.84432013  0.59886731     0.06100
C1576       C  0.14398888  0.82597086  0.59782119    -0.02450
Br1577     Br  0.14137234  0.81004682  0.61784576    -0.02150
H1578       H  0.15418283  0.80480436  0.58130226     0.10010
H1579       H  0.14015632  0.86954448  0.58478086     0.08030
Br1580     Br  0.15597642  0.86508511  0.54955217    -0.02580
C1581       C  0.15480069  0.81677446  0.40507963    -0.09210
C1582       C  0.15447587  0.82773571  0.42036794     0.06990
C1583       C  0.14812444  0.84550003  0.41865314    -0.02980
C1584       C  0.14169008  0.85159955  0.40213970    -0.07430
C1585       C  0.14160282  0.84046183  0.38705635     0.06100
C1586       C  0.14850935  0.82299067  0.38854389    -0.02450
Br1587     Br  0.15051016  0.80743226  0.36824341    -0.02150
H1588       H  0.15985950  0.80321819  0.40598411     0.10010
H1589       H  0.13668535  0.86517314  0.40105442     0.08030
Br1590     Br  0.14903536  0.86270462  0.43769822    -0.02580
C1591       C  0.33611732  0.63659210  0.40417993    -0.09210
C1592       C  0.33454781  0.64697884  0.38863568     0.06990
C1593       C  0.32589625  0.66366391  0.38954402    -0.02980
C1594       C  0.31934957  0.66988293  0.40597423    -0.07430
C1595       C  0.32113998  0.65965040  0.42172730     0.06100
C1596       C  0.32944946  0.64264172  0.42059111    -0.02450
Br1597     Br  0.33088660  0.62611012  0.44024580    -0.02150
H1598       H  0.34240505  0.62353647  0.40347405     0.10010
H1599       H  0.31286545  0.68283792  0.40640035     0.08030
Br1600     Br  0.32189257  0.67793239  0.36854474    -0.02580
C1601       C  0.40434822  0.82299350  0.14583539    -0.09210
C1602       C  0.40785198  0.81925395  0.16390166     0.06990
C1603       C  0.39431217  0.82246732  0.17668829    -0.02980
C1604       C  0.37751000  0.82864770  0.17112688    -0.07430
C1605       C  0.37391928  0.83209599  0.15298346     0.06100
C1606       C  0.38773236  0.82951730  0.14030920    -0.02450
Br1607     Br  0.38549478  0.83593685  0.11545509    -0.02150
H1608       H  0.41466892  0.82091723  0.13588200     0.10010
H1609       H  0.36722755  0.83094322  0.18107406     0.08030
Br1610     Br  0.39828833  0.82032568  0.20200054    -0.02580
C1611       C  0.37993935  0.65619319  0.32410823    -0.09210
C1612       C  0.38060660  0.64643372  0.34009588     0.06990
C1613       C  0.39727324  0.64264673  0.34789273    -0.02980
C1614       C  0.41295667  0.64888594  0.33985760    -0.07430
C1615       C  0.41254284  0.65870664  0.32372959     0.06100
C1616       C  0.39561960  0.66223998  0.31579436    -0.02450
Br1617     Br  0.39242772  0.67371561  0.29300297    -0.02150
H1618       H  0.36711801  0.65879369  0.31785400     0.10010
H1619       H  0.42555272  0.64589386  0.34633149     0.08030
Br1620     Br  0.39927632  0.62816133  0.36904376    -0.02580
C1621       C  0.09121026  0.82656896  0.64883364    -0.09210
C1622       C  0.09138274  0.84505794  0.64538020     0.06990
C1623       C  0.07580686  0.85512337  0.64896138    -0.02980
C1624       C  0.06069154  0.84672130  0.65603557    -0.07430
C1625       C  0.06053215  0.82826652  0.65952778     0.06100
C1626       C  0.07599072  0.81811786  0.65569496    -0.02450
Br1627     Br  0.07676246  0.79254162  0.65787399    -0.02150
H1628       H  0.10295255  0.81857558  0.64594164     0.10010
H1629       H  0.04888076  0.85469527  0.65867771     0.08030
Br1630     Br  0.07362110  0.88002802  0.64321017    -0.02580
C1631       C  0.82833979  0.06731596  0.64152120    -0.09210
C1632       C  0.81900625  0.06780441  0.65785897     0.06990
C1633       C  0.81800127  0.08424321  0.66723727    -0.02980
C1634       C  0.82557814  0.09969431  0.65982307    -0.07430
C1635       C  0.83451264  0.09910402  0.64336413     0.06100
C1636       C  0.83622430  0.08267853  0.63440197    -0.02450
Br1637     Br  0.85018235  0.08028962  0.61302919    -0.02150
H1638       H  0.82958981  0.05490039  0.63417753     0.10010
H1639       H  0.82468977  0.11223071  0.66704367     0.08030
Br1640     Br  0.80806044  0.08652064  0.69081335    -0.02580
C1641       C  0.83154522  0.59565120  0.16582061    -0.09210
C1642       C  0.83624905  0.59612382  0.14765340     0.06990
C1643       C  0.83515652  0.58030812  0.13748167    -0.02980
C1644       C  0.82874647  0.56461907  0.14536993    -0.07430
C1645       C  0.82366495  0.56414947  0.16349177     0.06100
C1646       C  0.82549753  0.57987495  0.17385564    -0.02450
Br1647     Br  0.82162763  0.58066195  0.19925912    -0.02150
H1648       H  0.83275674  0.60764042  0.17387318     0.10010
H1649       H  0.82775532  0.55270320  0.13720572     0.08030
Br1650     Br  0.84340533  0.57897499  0.11317132    -0.02580
C1651       C  0.07552972  0.81485394  0.32881708    -0.09210
C1652       C  0.06056106  0.82618077  0.32741369     0.06990
C1653       C  0.06242840  0.84436739  0.33224511    -0.02980
C1654       C  0.07878172  0.85061751  0.33877503    -0.07430
C1655       C  0.09363213  0.83923700  0.34036312     0.06100
C1656       C  0.09195547  0.82121783  0.33511559    -0.02450
Br1657     Br  0.11187023  0.80501756  0.33509809    -0.02150
H1658       H  0.07449448  0.80093242  0.32495769     0.10010
H1659       H  0.07996209  0.86456821  0.34251954     0.08030
Br1660     Br  0.04394042  0.86190167  0.32887072    -0.02580
C1661       C  0.91229178  0.83168797  0.34101097    -0.09210
C1662       C  0.91278487  0.82253883  0.32459892     0.06990
C1663       C  0.89667176  0.82059365  0.31477791    -0.02980
C1664       C  0.88054214  0.82674526  0.32204836    -0.07430
C1665       C  0.88019978  0.83539564  0.33865312     0.06100
C1666       C  0.89631228  0.83842624  0.34781817    -0.02450
Br1667     Br  0.89747878  0.85300333  0.36886707    -0.02150
H1668       H  0.92441326  0.83377660  0.34864070     0.10010
H1669       H  0.86824264  0.82510089  0.31455882     0.08030
Br1670     Br  0.89565306  0.81149804  0.29076530    -0.02580
C1671       C  0.89788633  0.65876961  0.17154533    -0.09210
C1672       C  0.91272049  0.66014560  0.16007885     0.06990
C1673       C  0.91077712  0.65518829  0.14192716    -0.02980
C1674       C  0.89452783  0.64831409  0.13586323    -0.07430
C1675       C  0.87994126  0.64639600  0.14746386     0.06100
C1676       C  0.88158567  0.65196931  0.16538921    -0.02450
Br1677     Br  0.86180649  0.65124530  0.18172626    -0.02150
H1678       H  0.89902314  0.66277142  0.18543401     0.10010
H1679       H  0.89328879  0.64432252  0.12197075     0.08030
Br1680     Br  0.92915923  0.65854167  0.12431000    -0.02580
C1681       C  0.07875751  0.65152134  0.13481725    -0.09210
C1682       C  0.09221368  0.64553178  0.14653265     0.06990
C1683       C  0.08934558  0.64668253  0.16520428    -0.02980
C1684       C  0.07308275  0.65322021  0.17168728    -0.07430
C1685       C  0.05955531  0.65877250  0.15992042     0.06100
C1686       C  0.06261733  0.65824981  0.14133763    -0.02450
Br1687     Br  0.04588042  0.66779172  0.12430728    -0.02150
H1688       H  0.08077527  0.65093249  0.12046687     0.10010
H1689       H  0.07095886  0.65392065  0.18602209     0.08030
Br1690     Br  0.10732417  0.64060114  0.18258406    -0.02580
C1691       C  0.31933357  0.84005096  0.07665871    -0.09210
C1692       C  0.31644114  0.82182479  0.07342222     0.06990
C1693       C  0.31798451  0.80955499  0.08774975    -0.02980
C1694       C  0.32208907  0.81573167  0.10492034    -0.07430
C1695       C  0.32508079  0.83397024  0.10814792     0.06100
C1696       C  0.32374709  0.84619417  0.09374718    -0.02450
Br1697     Br  0.32935267  0.87117327  0.09598208    -0.02150
H1698       H  0.31832790  0.84959664  0.06577171     0.10010
H1699       H  0.32352135  0.80615442  0.11573715     0.08030
Br1700     Br  0.31657455  0.78410095  0.08455823    -0.02580
C1701       C  0.32310591  0.84660713  0.89558627    -0.09210
C1702       C  0.34181636  0.84818242  0.89468090     0.06990
C1703       C  0.35210302  0.84256077  0.90956418    -0.02980
C1704       C  0.34366036  0.83522752  0.92461453    -0.07430
C1705       C  0.32499640  0.83344914  0.92537152     0.06100
C1706       C  0.31467478  0.83951186  0.91074670    -0.02450
Br1707     Br  0.28902471  0.84001610  0.91125973    -0.02150
H1708       H  0.31493375  0.85108934  0.88446192     0.10010
H1709       H  0.35176823  0.83092403  0.93585575     0.08030
Br1710     Br  0.37755206  0.84569768  0.91086639    -0.02580
C1711       C  0.13825120  0.65868165  0.06971679    -0.09210
C1712       C  0.15652971  0.66294744  0.06956125     0.06990
C1713       C  0.16680367  0.65967849  0.08512204    -0.02980
C1714       C  0.15868137  0.65227354  0.10031702    -0.07430
C1715       C  0.14043367  0.64795467  0.10033598     0.06100
C1716       C  0.13020372  0.65118820  0.08481315    -0.02450
Br1717     Br  0.10553466  0.64433190  0.08289022    -0.02150
H1718       H  0.13015522  0.66095801  0.05789591     0.10010
H1719       H  0.16671131  0.64959758  0.11210648     0.08030
Br1720     Br  0.19215595  0.66340183  0.08610187    -0.02580
C1721       C  0.57035576  0.85196534  0.13883045    -0.09210
C1722       C  0.58652660  0.84253733  0.13969522     0.06990
C1723       C  0.58681481  0.82551127  0.14772154    -0.02980
C1724       C  0.57097512  0.81797857  0.15423720    -0.07430
C1725       C  0.55456168  0.82718202  0.15311660     0.06100
C1726       C  0.55448551  0.84458981  0.14550132    -0.02450
Br1727     Br  0.53384363  0.85986767  0.14479474    -0.02150
H1728       H  0.57009032  0.86520925  0.13290872     0.10010
H1729       H  0.57156062  0.80475292  0.16013328     0.08030
Br1730     Br  0.60867566  0.81239874  0.15082265    -0.02580
C1731       C  0.82430510  0.06255218  0.34280120    -0.09210
C1732       C  0.81871083  0.06202921  0.32485689     0.06990
C1733       C  0.82056042  0.07762786  0.31427088    -0.02980
C1734       C  0.82725898  0.09334890  0.32193668    -0.07430
C1735       C  0.83259416  0.09385492  0.33995447     0.06100
C1736       C  0.83137802  0.07811419  0.35029197    -0.02450
Br1737     Br  0.84056076  0.07643866  0.37418892    -0.02150
H1738       H  0.82331927  0.05070990  0.35111107     0.10010
H1739       H  0.82856890  0.10521414  0.31369077     0.08030
Br1740     Br  0.81592679  0.07813291  0.28898918    -0.02580
C1741       C  0.80890003  0.89953816  0.32597454    -0.09210
C1742       C  0.81985030  0.91483483  0.32599069     0.06990
C1743       C  0.83756758  0.91327265  0.33249380    -0.02980
C1744       C  0.84369264  0.89688449  0.33913061    -0.07430
C1745       C  0.83265810  0.88177324  0.33929090     0.06100
C1746       C  0.81516257  0.88311235  0.33250259    -0.02450
Br1747     Br  0.79971135  0.86270169  0.33098011    -0.02150
H1748       H  0.79535837  0.90033112  0.32089704     0.10010
H1749       H  0.85728145  0.89586436  0.34407904     0.08030
Br1750     Br  0.85480920  0.93223999  0.33143498    -0.02580
C1751       C  0.64277215  0.92167564  0.13811790    -0.09210
C1752       C  0.64833793  0.92099144  0.15610457     0.06990
C1753       C  0.64582526  0.90492433  0.16579228    -0.02980
C1754       C  0.63830203  0.89000499  0.15733866    -0.07430
C1755       C  0.63298802  0.89065882  0.13931600     0.06100
C1756       C  0.63514187  0.90677094  0.12972880    -0.02450
Br1757     Br  0.62687053  0.90955464  0.10554409    -0.02150
H1758       H  0.64434756  0.93390437  0.13048653     0.10010
H1759       H  0.63646839  0.87779061  0.16494757     0.08030
Br1760     Br  0.65086395  0.90272168  0.19091041    -0.02580
C1761       C  0.64425059  0.08772419  0.13724116    -0.09210
C1762       C  0.64276329  0.10204808  0.14929145     0.06990
C1763       C  0.64813131  0.09944749  0.16722189    -0.02980
C1764       C  0.65424015  0.08261212  0.17285962    -0.07430
C1765       C  0.65526875  0.06814079  0.16089038     0.06100
C1766       C  0.65057411  0.07098986  0.14277967    -0.02450
Br1767     Br  0.65384491  0.05322685  0.12452071    -0.02150
H1768       H  0.64049447  0.08957681  0.12334394     0.10010
H1769       H  0.65811228  0.08081238  0.18672684     0.08030
Br1770     Br  0.64842280  0.11860414  0.18429464    -0.02580
C1771       C  0.80936074  0.32827913  0.07563452    -0.09210
C1772       C  0.82127849  0.32506885  0.06148173     0.06990
C1773       C  0.83966670  0.32829634  0.06417582    -0.02980
C1774       C  0.84564723  0.33519691  0.08053486    -0.07430
C1775       C  0.83367769  0.33876777  0.09458193     0.06100
C1776       C  0.81535266  0.33497628  0.09206391    -0.02450
Br1777     Br  0.79796664  0.33754416  0.11081090    -0.02150
H1778       H  0.79524073  0.32558306  0.07390907     0.10010
H1779       H  0.85978451  0.33778414  0.08228780     0.08030
Br1780     Br  0.85746886  0.32222349  0.04670716    -0.02580
C1781       C  0.83433915  0.33122779  0.91282227    -0.09210
C1782       C  0.81719094  0.32359426  0.91331615     0.06990
C1783       C  0.80699812  0.32310919  0.89731320    -0.02980
C1784       C  0.81424531  0.32980282  0.88136339    -0.07430
C1785       C  0.83143302  0.33718550  0.88100130     0.06100
C1786       C  0.84140486  0.33810710  0.89695945    -0.02450
Br1787     Br  0.86427063  0.34971443  0.89809248    -0.02150
H1788       H  0.84236178  0.33194020  0.92487280     0.10010
H1789       H  0.80634097  0.32946296  0.86920204     0.08030
Br1790     Br  0.78265776  0.31508421  0.89628796    -0.02580
C1791       C  0.63777236  0.15840592  0.07094596    -0.09210
C1792       C  0.65619864  0.16104838  0.06876529     0.06990
C1793       C  0.66770452  0.15760407  0.08337387    -0.02980
C1794       C  0.66061100  0.15201089  0.09980215    -0.07430
C1795       C  0.64214046  0.14947465  0.10203210     0.06100
C1796       C  0.63069106  0.15259713  0.08727222    -0.02450
Br1797     Br  0.60547270  0.14783118  0.08789260    -0.02150
H1798       H  0.62877951  0.16076466  0.05980751     0.10010
H1799       H  0.66962934  0.14934827  0.11085286     0.08030
Br1800     Br  0.69326464  0.15860893  0.08137190    -0.02580
C1801       C  0.40534196  0.16550320  0.83643357    -0.09210
C1802       C  0.40761610  0.16446761  0.81784708     0.06990
C1803       C  0.39286014  0.15986597  0.80705216    -0.02980
C1804       C  0.37637033  0.15610098  0.81501664    -0.07430
C1805       C  0.37417128  0.15648633  0.83373600     0.06100
C1806       C  0.38891738  0.16160649  0.84444461    -0.02450
Br1807     Br  0.38848239  0.16230838  0.87006776    -0.02150
H1808       H  0.41655257  0.16913895  0.84486628     0.10010
H1809       H  0.36529623  0.15221815  0.80651401     0.08030
Br1810     Br  0.39471603  0.15661001  0.78162033    -0.02580
C1811       C  0.39489035  0.33644091  0.63330271    -0.09210
C1812       C  0.38123934  0.33982067  0.64574367     0.06990
C1813       C  0.38409319  0.33536632  0.66389327    -0.02980
C1814       C  0.40048004  0.32801347  0.66926472    -0.07430
C1815       C  0.41422683  0.32490156  0.65684074     0.06100
C1816       C  0.41117939  0.32894244  0.63862060    -0.02450
Br1817     Br  0.42796595  0.32317902  0.62005734    -0.02150
H1818       H  0.39281881  0.33954345  0.61927447     0.10010
H1819       H  0.40250083  0.32475019  0.68326073     0.08030
Br1820     Br  0.36579852  0.33797056  0.68172493    -0.02580
C1821       C  0.15373008  0.41726857  0.84469735    -0.09210
C1822       C  0.15488141  0.41937839  0.82605815     0.06990
C1823       C  0.14951216  0.40517765  0.81489070    -0.02980
C1824       C  0.14355825  0.38914483  0.82246852    -0.07430
C1825       C  0.14234610  0.38698269  0.84113877     0.06100
C1826       C  0.14743159  0.40136593  0.85230422    -0.02450
Br1827     Br  0.14467337  0.40094629  0.87787831    -0.02150
H1828       H  0.15755235  0.42817331  0.85343493     0.10010
H1829       H  0.13943516  0.37840208  0.81366684     0.08030
Br1830     Br  0.14815239  0.40743228  0.78930961    -0.02580
C1831       C  0.33156182  0.38936800  0.66589281    -0.09210
C1832       C  0.33440584  0.38797403  0.64736643     0.06990
C1833       C  0.33068069  0.40288967  0.63635407    -0.02980
C1834       C  0.32374310  0.41852312  0.64387481    -0.07430
C1835       C  0.32057094  0.41984800  0.66235103     0.06100
C1836       C  0.32481675  0.40512645  0.67345865    -0.02450
Br1837     Br  0.32320016  0.40607539  0.69908744    -0.02150
H1838       H  0.33467990  0.37813741  0.67454677     0.10010
H1839       H  0.32084548  0.42976558  0.63516706     0.08030
Br1840     Br  0.33589794  0.40328052  0.61116196    -0.02580
C1841       C  0.62149227  0.07760293  0.84066141    -0.09210
C1842       C  0.63294945  0.09218038  0.84349555     0.06990
C1843       C  0.65087302  0.09086016  0.83777469    -0.02980
C1844       C  0.65697205  0.07514985  0.82954334    -0.07430
C1845       C  0.64551229  0.06052911  0.82670358     0.06100
C1846       C  0.62750400  0.06197004  0.83227946    -0.02450
Br1847     Br  0.60985401  0.04400431  0.82740168    -0.02150
H1848       H  0.60761526  0.07852188  0.84470925     0.10010
H1849       H  0.67077347  0.07442368  0.82523145     0.08030
Br1850     Br  0.66727233  0.11050436  0.83959609    -0.02580
C1851       C  0.65225171  0.14474076  0.89036445    -0.09210
C1852       C  0.63398036  0.14049004  0.89033736     0.06990
C1853       C  0.62386889  0.14377291  0.90593275    -0.02980
C1854       C  0.63200277  0.15142554  0.92097687    -0.07430
C1855       C  0.65023895  0.15593064  0.92097454     0.06100
C1856       C  0.66043440  0.15233119  0.90544340    -0.02450
Br1857     Br  0.68579568  0.15597864  0.90428644    -0.02150
H1858       H  0.66024651  0.14203940  0.87857741     0.10010
H1859       H  0.62397053  0.15384911  0.93279135     0.08030
Br1860     Br  0.59918993  0.13703208  0.90790597    -0.02580
C1861       C  0.57226360  0.14498766  0.85327719    -0.09210
C1862       C  0.58696371  0.14094331  0.84230934     0.06990
C1863       C  0.58581302  0.14471474  0.82381103    -0.02980
C1864       C  0.57001846  0.15180498  0.81662185    -0.07430
C1865       C  0.55514363  0.15544843  0.82751013     0.06100
C1866       C  0.55652859  0.15226547  0.84612397    -0.02450
Br1867     Br  0.53812534  0.15881759  0.86278069    -0.02150
H1868       H  0.57301719  0.14245346  0.86754861     0.10010
H1869       H  0.56936312  0.15442460  0.80236653     0.08030
Br1870     Br  0.60567230  0.14153261  0.80783794    -0.02580
C1871       C  0.06181434  0.65728741  0.84650198    -0.09210
C1872       C  0.06091117  0.65913159  0.82782155     0.06990
C1873       C  0.07578797  0.65412918  0.81737850    -0.02980
C1874       C  0.09122714  0.64760855  0.82571397    -0.07430
C1875       C  0.09216872  0.64576687  0.84441227     0.06100
C1876       C  0.07720964  0.65067204  0.85485217    -0.02450
Br1877     Br  0.07636957  0.64744247  0.88036857    -0.02150
H1878       H  0.05040052  0.66089633  0.85466518     0.10010
H1879       H  0.10250713  0.64369523  0.81750367     0.08030
Br1880     Br  0.07531165  0.65429657  0.79168155    -0.02580
C1881       C  0.12867672  0.65189254  0.90490823    -0.09210
C1882       C  0.14025405  0.64694035  0.89095776     0.06990
C1883       C  0.15878088  0.64990377  0.89298479    -0.02980
C1884       C  0.16533981  0.65712598  0.90896108    -0.07430
C1885       C  0.15375624  0.66162560  0.92303313     0.06100
C1886       C  0.13520690  0.65933581  0.92073811    -0.02450
Br1887     Br  0.11798630  0.66737174  0.93801843    -0.02150
H1888       H  0.11439890  0.64994279  0.90350398     0.10010
H1889       H  0.17960259  0.65914948  0.91043228     0.08030
Br1890     Br  0.17568171  0.64541475  0.87417295    -0.02580
C1891       C  0.14134231  0.59666958  0.82733137    -0.09210
C1892       C  0.13810326  0.59722976  0.84583904     0.06990
C1893       C  0.14178689  0.58190795  0.85626923    -0.02980
C1894       C  0.14896764  0.56664042  0.84815950    -0.07430
C1895       C  0.15244056  0.56616932  0.82967265     0.06100
C1896       C  0.14826197  0.58133338  0.81917858    -0.02450
Br1897     Br  0.15005648  0.58157927  0.79353577    -0.02150
H1898       H  0.13830414  0.60823442  0.81909906     0.10010
H1899       H  0.15180065  0.55502292  0.85638075     0.08030
Br1900     Br  0.13615387  0.58051581  0.88132008    -0.02580
C1901       C  0.65823515  0.83064209  0.07460036    -0.09210
C1902       C  0.64663012  0.82611384  0.06053531     0.06990
C1903       C  0.62819712  0.82960146  0.06247416    -0.02980
C1904       C  0.62182905  0.83785788  0.07802503    -0.07430
C1905       C  0.63342466  0.84256875  0.09206865     0.06100
C1906       C  0.65184422  0.83874742  0.09026122    -0.02450
Br1907     Br  0.66879401  0.84303435  0.10908854    -0.02150
H1908       H  0.67239371  0.82781422  0.07342503     0.10010
H1909       H  0.60762736  0.84044649  0.07923241     0.08030
Br1910     Br  0.61081063  0.82198445  0.04517878    -0.02580
C1911       C  0.84446448  0.64864632  0.08649125    -0.09210
C1912       C  0.83278026  0.64380772  0.10039489     0.06990
C1913       C  0.81420960  0.64609206  0.09786921    -0.02980
C1914       C  0.80774256  0.65262818  0.08152823    -0.07430
C1915       C  0.81944482  0.65715999  0.06755359     0.06100
C1916       C  0.83801906  0.65545574  0.07029684    -0.02450
Br1917     Br  0.85536782  0.66360547  0.05320861    -0.02150
H1918       H  0.85877183  0.64721074  0.08826214     0.10010
H1919       H  0.79345040  0.65416392  0.07973217     0.08030
Br1920     Br  0.79707484  0.64168968  0.11649201    -0.02580
C1921       C  0.14814550  0.17101381  0.57915215    -0.09210
C1922       C  0.15357936  0.15904885  0.56576764     0.06990
C1923       C  0.15220294  0.14051149  0.56891583    -0.02980
C1924       C  0.14476998  0.13430650  0.58491700    -0.07430
C1925       C  0.13899859  0.14624670  0.59824913     0.06100
C1926       C  0.14102006  0.16483430  0.59532011    -0.02450
Br1927     Br  0.13552895  0.18251025  0.61316034    -0.02150
H1928       H  0.14945128  0.18529439  0.57702425     0.10010
H1929       H  0.14357758  0.12000952  0.58697075     0.08030
Br1930     Br  0.16163808  0.12301451  0.55265225    -0.02580
C1931       C  0.16456633  0.15891611  0.40441862    -0.09210
C1932       C  0.15298882  0.16244505  0.41878028     0.06990
C1933       C  0.13449127  0.15969293  0.41650756    -0.02980
C1934       C  0.12805480  0.15264622  0.40046514    -0.07430
C1935       C  0.13962726  0.14864833  0.38620955     0.06100
C1936       C  0.15806613  0.15215703  0.38819141    -0.02450
Br1937     Br  0.17485769  0.14904300  0.36900871    -0.02150
H1938       H  0.17877176  0.16131821  0.40585931     0.10010
H1939       H  0.11382843  0.15030586  0.39912052     0.08030
Br1940     Br  0.11711578  0.16663674  0.43410977    -0.02580
C1941       C  0.31981026  0.31650194  0.58233538    -0.09210
C1942       C  0.31823380  0.32822881  0.56767832     0.06990
C1943       C  0.32300568  0.34635625  0.56991908    -0.02980
C1944       C  0.32979162  0.35218622  0.58632667    -0.07430
C1945       C  0.33177002  0.34037502  0.60081451     0.06100
C1946       C  0.32648641  0.32241264  0.59880499    -0.02450
Br1947     Br  0.32726918  0.30566435  0.61829864    -0.02150
H1948       H  0.31595630  0.30260969  0.58095367     0.10010
H1949       H  0.33361037  0.36608512  0.58777588     0.08030
Br1950     Br  0.31939531  0.36421616  0.55175763    -0.02580
C1951       C  0.32673501  0.35134005  0.39996020    -0.09210
C1952       C  0.32849985  0.33914366  0.38581042     0.06990
C1953       C  0.32382307  0.32112085  0.38854738    -0.02980
C1954       C  0.31783357  0.31554077  0.40538225    -0.07430
C1955       C  0.31639836  0.32767032  0.41968533     0.06100
C1956       C  0.32068126  0.34582115  0.41676272    -0.02450
Br1957     Br  0.31728825  0.36404471  0.43453539    -0.02150
H1958       H  0.33007698  0.36529461  0.39789862     0.10010
H1959       H  0.31436554  0.30160716  0.40731756     0.08030
Br1960     Br  0.32451985  0.30385466  0.36955861    -0.02580
C1961       C  0.90945735  0.34206630  0.15599705    -0.09210
C1962       C  0.91089407  0.32355643  0.15853914     0.06990
C1963       C  0.89642507  0.31252156  0.15364445    -0.02980
C1964       C  0.88084594  0.32017848  0.14651828    -0.07430
C1965       C  0.87938583  0.33877317  0.14396283     0.06100
C1966       C  0.89403678  0.34971946  0.14874872    -0.02450
Br1967     Br  0.89478691  0.37502391  0.14457187    -0.02150
H1968       H  0.92052650  0.35069562  0.15955139     0.10010
H1969       H  0.86986714  0.31151984  0.14277682     0.08030
Br1970     Br  0.89769209  0.28690870  0.15490127    -0.02580
C1971       C  0.07228576  0.16365395  0.31960927    -0.09210
C1972       C  0.05721856  0.16237314  0.33080958     0.06990
C1973       C  0.05911577  0.15406358  0.34774541    -0.02980
C1974       C  0.07562934  0.14689248  0.35282848    -0.07430
C1975       C  0.09048672  0.14798247  0.34148823     0.06100
C1976       C  0.08882309  0.15662519  0.32485439    -0.02450
Br1977     Br  0.10896335  0.15997632  0.30934809    -0.02150
H1978       H  0.07123271  0.17012615  0.30666774     0.10010
H1979       H  0.07697986  0.14062502  0.36585846     0.08030
Br1980     Br  0.04042926  0.15333343  0.36534162    -0.02580
C1981       C  0.90988064  0.14066245  0.32888306    -0.09210
C1982       C  0.91017035  0.15915009  0.32550931     0.06990
C1983       C  0.89450630  0.16926816  0.32861062    -0.02980
C1984       C  0.87902466  0.16075436  0.33471416    -0.07430
C1985       C  0.87882145  0.14229374  0.33823347     0.06100
C1986       C  0.89452055  0.13223514  0.33533227    -0.02450
Br1987     Br  0.89645084  0.10733891  0.34146553    -0.02150
H1988       H  0.92180159  0.13269824  0.32677292     0.10010
H1989       H  0.86716148  0.16870542  0.33720877     0.08030
Br1990     Br  0.89368376  0.19488235  0.32673874    -0.02580
C1991       C  0.30202498  0.89896985  0.16623200    -0.09210
C1992       C  0.31400981  0.91343738  0.16675063     0.06990
C1993       C  0.33233358  0.91012551  0.16361586    -0.02980
C1994       C  0.33804049  0.89298604  0.15880199    -0.07430
C1995       C  0.32593601  0.87872708  0.15744162     0.06100
C1996       C  0.30782770  0.88173020  0.16176746    -0.02450
Br1997     Br  0.29059063  0.86272683  0.16246298    -0.02150
H1998       H  0.28798206  0.90109284  0.16904590     0.10010
H1999       H  0.35204583  0.89087785  0.15577418     0.08030
Br2000     Br  0.35054489  0.92789774  0.16680658    -0.02580
C2001       C  0.14731344  0.08152947  0.31500080    -0.09210
C2002       C  0.15097469  0.06729599  0.32675382     0.06990
C2003       C  0.14824867  0.06982574  0.34528985    -0.02980
C2004       C  0.14139482  0.08607317  0.35155963    -0.07430
C2005       C  0.13749397  0.10022273  0.33977737     0.06100
C2006       C  0.14076678  0.09788860  0.32131364    -0.02450
Br2007     Br  0.13779812  0.11682930  0.30416987    -0.02150
H2008       H  0.14958434  0.07995632  0.30076560     0.10010
H2009       H  0.13922026  0.08770570  0.36580636     0.08030
Br2010     Br  0.15505359  0.05241530  0.36296491    -0.02580
C2011       C  0.15701908  0.88836681  0.33286256    -0.09210
C2012       C  0.13953927  0.88757188  0.33956295     0.06990
C2013       C  0.12883889  0.90309048  0.33917019    -0.02980
C2014       C  0.13555710  0.91890905  0.33179015    -0.07430
C2015       C  0.15295685  0.91972615  0.32474745     0.06100
C2016       C  0.16381747  0.90422284  0.32552884    -0.02450
Br2017     Br  0.18841020  0.90397466  0.31823607    -0.02150
H2018       H  0.16545549  0.87657947  0.33341510     0.10010
H2019       H  0.12705537  0.93064983  0.33153346     0.08030
Br2020     Br  0.10531771  0.90368963  0.34943625    -0.02580
C2021       C  0.32341867  0.07514147  0.16386232    -0.09210
C2022       C  0.32022394  0.06056771  0.15243168     0.06990
C2023       C  0.32533355  0.06198857  0.13426919    -0.02980
C2024       C  0.33372536  0.07754010  0.12807224    -0.07430
C2025       C  0.33701396  0.09206510  0.13951877     0.06100
C2026       C  0.33165370  0.09077709  0.15759854    -0.02450
Br2027     Br  0.33397159  0.11034331  0.17406063    -0.02150
H2028       H  0.31941245  0.07441577  0.17777994     0.10010
H2029       H  0.33747068  0.07841071  0.11408504     0.08030
Br2030     Br  0.31979299  0.04404277  0.11676167    -0.02580
C2031       C  0.57628635  0.16153904  0.17329618    -0.09210
C2032       C  0.56169160  0.16200130  0.16138531     0.06990
C2033       C  0.56446788  0.15677264  0.14341556    -0.02980
C2034       C  0.58126616  0.15066069  0.13797382    -0.07430
C2035       C  0.59570157  0.14986373  0.14994480     0.06100
C2036       C  0.59317346  0.15558602  0.16772324    -0.02450
Br2037     Br  0.61251059  0.15646600  0.18457641    -0.02150
H2038       H  0.57455989  0.16575468  0.18705722     0.10010
H2039       H  0.58309775  0.14653232  0.12419732     0.08030
Br2040     Br  0.54657240  0.15897243  0.12509639    -0.02580
C2041       C  0.41503916  0.13869624  0.15062579    -0.09210
C2042       C  0.41438735  0.15655046  0.15656265     0.06990
C2043       C  0.39834135  0.16630659  0.15400115    -0.02980
C2044       C  0.38345899  0.15802368  0.14614519    -0.07430
C2045       C  0.38412414  0.14013064  0.14048883     0.06100
C2046       C  0.40022532  0.13053143  0.14259485    -0.02450
Br2047     Br  0.40316211  0.10663686  0.13365445    -0.02150
H2048       H  0.42719506  0.13096308  0.15218323     0.10010
H2049       H  0.37127048  0.16566671  0.14432206     0.08030
Br2050     Br  0.39605480  0.19130388  0.15938625    -0.02580
C2051       C  0.57143946  0.32405840  0.31782981    -0.09210
C2052       C  0.55540294  0.32814129  0.32688410     0.06990
C2053       C  0.55646845  0.33858965  0.34273836    -0.02980
C2054       C  0.57306031  0.34481614  0.34875512    -0.07430
C2055       C  0.58882491  0.34066142  0.33961316     0.06100
C2056       C  0.58799414  0.33005926  0.32414761    -0.02450
Br2057     Br  0.60923818  0.32282659  0.31172121    -0.02150
H2058       H  0.57122227  0.31609963  0.30574613     0.10010
H2059       H  0.57373329  0.35270723  0.36090133     0.08030
Br2060     Br  0.53657179  0.34385236  0.35807461    -0.02580
C2061       C  0.40654718  0.34308978  0.32836493    -0.09210
C2062       C  0.40844051  0.32451372  0.32630777     0.06990
C2063       C  0.39403739  0.31331367  0.33109849    -0.02980
C2064       C  0.37797991  0.32084397  0.33704251    -0.07430
C2065       C  0.37599719  0.33945086  0.33889704     0.06100
C2066       C  0.39066532  0.35060029  0.33477214    -0.02450
Br2067     Br  0.39060282  0.37595783  0.33897474    -0.02150
H2068       H  0.41756441  0.35188343  0.32508229     0.10010
H2069       H  0.36702077  0.31204411  0.34052405     0.08030
Br2070     Br  0.39586013  0.28769175  0.33161331    -0.02580
C2071       C  0.07658653  0.35216137  0.15136963    -0.09210
C2072       C  0.09094843  0.34013552  0.15020430     0.06990
C2073       C  0.08875001  0.32249483  0.15641390    -0.02980
C2074       C  0.07224647  0.31711545  0.16337613    -0.07430
C2075       C  0.05775005  0.32908083  0.16428226     0.06100
C2076       C  0.06013811  0.34686946  0.15840044    -0.02450
Br2077     Br  0.04213426  0.36503741  0.16084964    -0.02150
H2078       H  0.07821686  0.36583496  0.14683129     0.10010
H2079       H  0.07072122  0.30346840  0.16802170     0.08030
Br2080     Br  0.10804657  0.30557773  0.15656376    -0.02580
C2081       C  0.14210013  0.56544011  0.14398103    -0.09210
C2082       C  0.15233847  0.56613851  0.15980605     0.06990
C2083       C  0.15521115  0.58298688  0.16800970    -0.02980
C2084       C  0.14841570  0.59848512  0.16003415    -0.07430
C2085       C  0.13843567  0.59762488  0.14423266     0.06100
C2086       C  0.13503051  0.58097751  0.13630271    -0.02450
Br2087     Br  0.12020732  0.57884996  0.11544479    -0.02150
H2088       H  0.13954391  0.55276988  0.13747259     0.10010
H2089       H  0.15057772  0.61131347  0.16642478     0.08030
Br2090     Br  0.16662761  0.58614031  0.19082887    -0.02580
C2091       C  0.13467276  0.41749054  0.15949035    -0.09210
C2092       C  0.15325882  0.41921050  0.16122469     0.06990
C2093       C  0.16432357  0.40478507  0.15610340    -0.02980
C2094       C  0.15663537  0.38885188  0.15005589    -0.07430
C2095       C  0.13800813  0.38705577  0.14852778     0.06100
C2096       C  0.12700089  0.40175511  0.15303938    -0.02450
Br2097     Br  0.10156903  0.40195506  0.14936778    -0.02150
H2098       H  0.12599529  0.42853958  0.16305849     0.10010
H2099       H  0.16529758  0.37785546  0.14628725     0.08030
Br2100     Br  0.18991819  0.40644776  0.15534634    -0.02580
C2101       C  0.32500188  0.56822677  0.34536118    -0.09210
C2102       C  0.31844476  0.56770610  0.32772304     0.06990
C2103       C  0.31985242  0.58328284  0.31700182    -0.02980
C2104       C  0.32718976  0.59892671  0.32420189    -0.07430
C2105       C  0.33340198  0.59943829  0.34190600     0.06100
C2106       C  0.33249724  0.58381443  0.35244341    -0.02450
Br2107     Br  0.34231289  0.58266859  0.37619336    -0.02150
H2108       H  0.32430744  0.55642549  0.35376044     0.10010
H2109       H  0.32817039  0.61077209  0.31587848     0.08030
Br2110     Br  0.31355214  0.58396554  0.29208103    -0.02580
C2111       C  0.31776253  0.40575997  0.31432113    -0.09210
C2112       C  0.31414164  0.41922360  0.32692337     0.06990
C2113       C  0.31606743  0.41536655  0.34527349    -0.02980
C2114       C  0.32259283  0.39870695  0.35063963    -0.07430
C2115       C  0.32674947  0.38533008  0.33807239     0.06100
C2116       C  0.32388212  0.38887518  0.31971275    -0.02450
Br2117     Br  0.32693754  0.37102689  0.30148998    -0.02150
H2118       H  0.31586119  0.40839811  0.30017679     0.10010
H2119       H  0.32445313  0.39622573  0.36481617     0.08030
Br2120     Br  0.30857960  0.43161636  0.36370220    -0.02580
C2121       C  0.31063156  0.15170657  0.07652450    -0.09210
C2122       C  0.32117019  0.15455110  0.06121991     0.06990
C2123       C  0.33966430  0.15074956  0.06217113    -0.02980
C2124       C  0.34702884  0.14371454  0.07796526    -0.07430
C2125       C  0.33636915  0.14045307  0.09309329     0.06100
C2126       C  0.31801538  0.14480564  0.09232823    -0.02450
Br2127     Br  0.30253226  0.14260476  0.11271317    -0.02150
H2128       H  0.29648467  0.15480233  0.07620043     0.10010
H2129       H  0.36119486  0.14070703  0.07841519     0.08030
Br2130     Br  0.35588307  0.15607550  0.04299927    -0.02580
C2131       C  0.32700266  0.15812286  0.91213322    -0.09210
C2132       C  0.30980272  0.16554667  0.91340385     0.06990
C2133       C  0.30001145  0.16855209  0.89737877    -0.02980
C2134       C  0.30784394  0.16474727  0.88074327    -0.07430
C2135       C  0.32505599  0.15741857  0.87970716     0.06100
C2136       C  0.33438113  0.15361094  0.89562574    -0.02450
Br2137     Br  0.35619170  0.14011586  0.89583488    -0.02150
H2138       H  0.33471199  0.15532644  0.92408245     0.10010
H2139       H  0.30018970  0.16678964  0.86858286     0.08030
Br2140     Br  0.27532966  0.17563262  0.89693617    -0.02580
C2141       C  0.14889004  0.31610157  0.08295977    -0.09210
C2142       C  0.14989594  0.32754383  0.06802436     0.06990
C2143       C  0.14436562  0.34554678  0.06996554    -0.02980
C2144       C  0.13759184  0.35147121  0.08636575    -0.07430
C2145       C  0.13651042  0.33997102  0.10118027     0.06100
C2146       C  0.14244649  0.32217661  0.09943558    -0.02450
Br2147     Br  0.14333284  0.30597636  0.11937138    -0.02150
H2148       H  0.15323313  0.30231796  0.08189872     0.10010
H2149       H  0.13335736  0.36528236  0.08764897     0.08030
Br2150     Br  0.14711743  0.36334108  0.05160781    -0.02580
C2151       C  0.16306017  0.32323813  0.90552853    -0.09210
C2152       C  0.15154530  0.32410885  0.92041605     0.06990
C2153       C  0.13429307  0.33152702  0.91810403    -0.02980
C2154       C  0.12920335  0.33830632  0.90143945    -0.07430
C2155       C  0.14079502  0.33769787  0.88672904     0.06100
C2156       C  0.15781643  0.32993927  0.88878207    -0.02450
Br2157     Br  0.17392943  0.32742733  0.86897512    -0.02150
H2158       H  0.17625339  0.31741038  0.90691838     0.10010
H2159       H  0.11598095  0.34406090  0.89990693     0.08030
Br2160     Br  0.11629120  0.33163066  0.93642206    -0.02580
C2161       C  0.88251763  0.82317618  0.65177879    -0.09210
C2162       C  0.88156261  0.84149035  0.64764717     0.06990
C2163       C  0.89693008  0.85215029  0.65001747    -0.02980
C2164       C  0.91266333  0.84447832  0.65668352    -0.07430
C2165       C  0.91361298  0.82617205  0.66087884     0.06100
C2166       C  0.89833596  0.81543248  0.65815257    -0.02450
Br2167     Br  0.89852899  0.78990335  0.66104582    -0.02150
H2168       H  0.87094355  0.81473880  0.64967303     0.10010
H2169       H  0.92430622  0.85289162  0.65843951     0.08030
Br2170     Br  0.89780537  0.87686633  0.64301868    -0.02580
C2171       C  0.82930785  0.90172891  0.63369798    -0.09210
C2172       C  0.83263147  0.88776877  0.64587638     0.06990
C2173       C  0.82789246  0.89016871  0.66401995    -0.02980
C2174       C  0.82049524  0.90645054  0.66966167    -0.07430
C2175       C  0.81760683  0.92053699  0.65752701     0.06100
C2176       C  0.82175524  0.91790212  0.63929498    -0.02450
Br2177     Br  0.81613523  0.93521930  0.62112085    -0.02150
H2178       H  0.83259336  0.90004221  0.61967310     0.10010
H2179       H  0.81707975  0.90814977  0.68365244     0.08030
Br2180     Br  0.83019016  0.87143505  0.68149502    -0.02580
C2181       C  0.81108746  0.82661018  0.58162886    -0.09210
C2182       C  0.82291431  0.82420912  0.56721532     0.06990
C2183       C  0.84107397  0.82878097  0.56949874    -0.02980
C2184       C  0.84683637  0.83626989  0.58564115    -0.07430
C2185       C  0.83493521  0.83905953  0.59990209     0.06100
C2186       C  0.81692829  0.83386395  0.59787983    -0.02450
Br2187     Br  0.79996801  0.83530458  0.61711306    -0.02150
H2188       H  0.79716742  0.82289206  0.58024551     0.10010
H2189       H  0.86077736  0.83990490  0.58708376     0.08030
Br2190     Br  0.85903341  0.82383353  0.55182460    -0.02580
C2191       C  0.83676006  0.82477001  0.41750079    -0.09210
C2192       C  0.81825757  0.82266194  0.41918146     0.06990
C2193       C  0.80720651  0.82625771  0.40428274    -0.02980
C2194       C  0.81484337  0.83188021  0.38812921    -0.07430
C2195       C  0.83341224  0.83424161  0.38647693     0.06100
C2196       C  0.84439611  0.83052662  0.40146726    -0.02450
Br2197     Br  0.86970832  0.83428574  0.40188130    -0.02150
H2198       H  0.84539278  0.82207340  0.42885150     0.10010
H2199       H  0.80616358  0.83477621  0.37686538     0.08030
Br2200     Br  0.78159245  0.82539156  0.40552089    -0.02580
C2201       C  0.64214206  0.66256965  0.38883037    -0.09210
C2202       C  0.64145315  0.64382080  0.38719053     0.06990
C2203       C  0.64764632  0.63323381  0.40166456    -0.02980
C2204       C  0.65434820  0.64140246  0.41704560    -0.07430
C2205       C  0.65484871  0.66004848  0.41870796     0.06100
C2206       C  0.64856785  0.67071379  0.40443806    -0.02450
Br2207     Br  0.64679150  0.69627893  0.40605114    -0.02150
H2208       H  0.63737783  0.67098047  0.37800190     0.10010
H2209       H  0.65899301  0.63303809  0.42796891     0.08030
Br2210     Br  0.64609844  0.60764469  0.40245302    -0.02580
C2211       C  0.57737731  0.64151198  0.35122395    -0.09210
C2212       C  0.59293007  0.64243896  0.34082507     0.06990
C2213       C  0.59203697  0.65003995  0.32360667    -0.02980
C2214       C  0.57564700  0.65606001  0.31685979    -0.07430
C2215       C  0.55987134  0.65481507  0.32704084     0.06100
C2216       C  0.56095777  0.64767214  0.34459020    -0.02450
Br2217     Br  0.54112883  0.64707840  0.36086870    -0.02150
H2218       H  0.57802988  0.63595757  0.36462179     0.10010
H2219       H  0.57527459  0.66165838  0.30348387     0.08030
Br2220     Br  0.61298756  0.65326631  0.30914030    -0.02580
C2221       C  0.64988440  0.59658565  0.32318536    -0.09210
C2222       C  0.64128633  0.59657320  0.33982909     0.06990
C2223       C  0.63941792  0.58039608  0.34925364    -0.02980
C2224       C  0.64695364  0.56472800  0.34248696    -0.07430
C2225       C  0.65596481  0.56461907  0.32599115     0.06100
C2226       C  0.65701855  0.58076621  0.31607379    -0.02450
Br2227     Br  0.66632986  0.58207438  0.29216462    -0.02150
H2228       H  0.65080534  0.60891049  0.31558601     0.10490
H2229       H  0.64563270  0.55252692  0.35020159     0.08030
Br2230     Br  0.62556685  0.57871330  0.37077392    -0.02580
C2231       C  0.89585974  0.64847333  0.85147559    -0.09210
C2232       C  0.88087335  0.64815155  0.84021414     0.06990
C2233       C  0.88239802  0.65475041  0.82262264    -0.02980
C2234       C  0.89889431  0.66108670  0.81645641    -0.07430
C2235       C  0.91409672  0.66100194  0.82757182     0.06100
C2236       C  0.91232753  0.65486876  0.84541671    -0.02450
Br2237     Br  0.93123231  0.65595603  0.86278627    -0.02150
H2238       H  0.89474462  0.64363324  0.86511614     0.10010
H2239       H  0.89985209  0.66594326  0.80282078     0.08030
Br2240     Br  0.86219802  0.65609677  0.80682237    -0.02580
C2241       C  0.81523795  0.64809741  0.88891828    -0.09210
C2242       C  0.83383404  0.64576708  0.88778388     0.06990
C2243       C  0.84439519  0.64920408  0.90307588    -0.02980
C2244       C  0.83632583  0.65521979  0.91885797    -0.07430
C2245       C  0.81774206  0.65768604  0.91995922     0.06100
C2246       C  0.80713149  0.65380394  0.90480331    -0.02450
Br2247     Br  0.78147733  0.65424455  0.90526544    -0.02150
H2248       H  0.80690330  0.64517140  0.87741982     0.10010
H2249       H  0.84466782  0.65785141  0.93041787     0.08030
Br2250     Br  0.86965672  0.64457724  0.90382857    -0.02580
C2251       C  0.82911157  0.56766439  0.84156596    -0.09210
C2252       C  0.82165338  0.56773593  0.82427424     0.06990
C2253       C  0.82149032  0.58397301  0.81447063    -0.02980
C2254       C  0.82824649  0.59961247  0.82223475    -0.07430
C2255       C  0.83535392  0.59947329  0.83959981     0.06100
C2256       C  0.83598629  0.58326855  0.84919767    -0.02450
Br2257     Br  0.84702697  0.58151473  0.87235534    -0.02150
H2258       H  0.82959070  0.55539418  0.84927938     0.10010
H2259       H  0.82805772  0.61197185  0.81463012     0.08030
Br2260     Br  0.81370815  0.58572126  0.79002491    -0.02580
C2261       C  0.83047638  0.38830844  0.81661670    -0.09210
C2262       C  0.83207449  0.38594507  0.83520907     0.06990
C2263       C  0.82858834  0.40061183  0.84662529    -0.02980
C2264       C  0.82346947  0.41707847  0.83932596    -0.07430
C2265       C  0.82188083  0.41938457  0.82075898     0.06100
C2266       C  0.82560185  0.40483823  0.80933364    -0.02450
Br2267     Br  0.82598472  0.40706858  0.78371066    -0.02150
H2268       H  0.83345262  0.37730638  0.80766118     0.10010
H2269       H  0.82079279  0.42819399  0.84823160     0.08030
Br2270     Br  0.83194272  0.39962362  0.87212082    -0.02580
C2271       C  0.64270578  0.40216061  0.63293158    -0.09210
C2272       C  0.64121345  0.38744418  0.64449634     0.06990
C2273       C  0.64748503  0.38894406  0.66220814    -0.02980
C2274       C  0.65451281  0.40518088  0.66822466    -0.07430
C2275       C  0.65570848  0.42005209  0.65676476     0.06100
C2276       C  0.65004073  0.41829575  0.63879773    -0.02450
Br2277     Br  0.65339929  0.43661909  0.62106649    -0.02150
H2278       H  0.63836884  0.40098969  0.61913248     0.10010
H2279       H  0.65907731  0.40615735  0.68195637     0.08030
Br2280     Br  0.64803392  0.36895656  0.67830161    -0.02580
C2281       C  0.58071457  0.33495698  0.63165787    -0.09210
C2282       C  0.59409371  0.33949768  0.64408802     0.06990
C2283       C  0.59098389  0.33615412  0.66245197    -0.02980
C2284       C  0.57469571  0.32883312  0.66797165    -0.07430
C2285       C  0.56132980  0.32451691  0.65553462     0.06100
C2286       C  0.56458471  0.32733680  0.63716723    -0.02450
Br2287     Br  0.54831453  0.31961235  0.61885592    -0.02150
H2288       H  0.58286605  0.33720119  0.61748784     0.10010
H2289       H  0.57247283  0.32645782  0.68211167     0.08030
Br2290     Br  0.60870117  0.33996508  0.68060664    -0.02580
C2291       C  0.65999765  0.33475479  0.59741427    -0.09210
C2292       C  0.64211904  0.34032760  0.59776400     0.06990
C2293       C  0.63205406  0.34008036  0.58183963    -0.02980
C2294       C  0.63978157  0.33379918  0.56603639    -0.07430
C2295       C  0.65765522  0.32797239  0.56559308     0.06100
C2296       C  0.66789034  0.32874189  0.58154218    -0.02450
Br2297     Br  0.69300302  0.32349432  0.58259289    -0.02150
H2298       H  0.66795203  0.33538421  0.60953207     0.10010
H2299       H  0.63170046  0.33354448  0.55400635     0.08030
Br2300     Br  0.60813018  0.34936965  0.58062399    -0.02580
C2301       C  0.64855570  0.89299239  0.84357978    -0.09210
C2302       C  0.65025809  0.87846000  0.83189415     0.06990
C2303       C  0.65682467  0.88130133  0.81451020    -0.02980
C2304       C  0.66094804  0.89867664  0.80886112    -0.07430
C2305       C  0.65864302  0.91345623  0.82033696     0.06100
C2306       C  0.65274651  0.91034635  0.83806858    -0.02450
Br2307     Br  0.65103646  0.92865676  0.85598465    -0.02150
H2308       H  0.64363611  0.89083519  0.85705921     0.10010
H2309       H  0.66569614  0.90062721  0.79530666     0.08030
Br2310     Br  0.66071739  0.86181493  0.79827685    -0.02580
C2311       C  0.65481519  0.84275404  0.89182759    -0.09210
C2312       C  0.64924156  0.83072358  0.87848996     0.06990
C2313       C  0.64955215  0.81218905  0.88231359    -0.02980
C2314       C  0.65426929  0.80624267  0.89946697    -0.07430
C2315       C  0.65902017  0.81839419  0.91296327     0.06100
C2316       C  0.65994098  0.83675038  0.90879589    -0.02450
Br2317     Br  0.66933057  0.85412463  0.92518815    -0.02150
H2318       H  0.65496445  0.85700068  0.88917117     0.10010
H2319       H  0.65403406  0.79203016  0.90232789     0.08030
Br2320     Br  0.64458392  0.79426010  0.86458271    -0.02580
C2321       C  0.56856087  0.83319820  0.83720926    -0.09210
C2322       C  0.56659150  0.82402285  0.82090658     0.06990
C2323       C  0.58196231  0.82105207  0.81020331    -0.02980
C2324       C  0.59877454  0.82645780  0.81636435    -0.07430
C2325       C  0.60063170  0.83504894  0.83288797     0.06100
C2326       C  0.58534354  0.83880064  0.84315560    -0.02450
Br2327     Br  0.58666653  0.85221279  0.86501823    -0.02150
H2328       H  0.55702772  0.83589615  0.84553191     0.10010
H2329       H  0.61048340  0.82402735  0.80817871     0.08030
Br2330     Br  0.58115822  0.81110583  0.78651725    -0.02580
C2331       C  0.38733113  0.82982398  0.83980232    -0.09210
C2332       C  0.38832019  0.84743611  0.84619345     0.06990
C2333       C  0.40477538  0.85649721  0.84523508    -0.02980
C2334       C  0.41953082  0.84833729  0.83717053    -0.07430
C2335       C  0.41859162  0.83081509  0.83041909     0.06100
C2336       C  0.40226963  0.82137787  0.83219931    -0.02450
Br2337     Br  0.39965282  0.79652764  0.82633021    -0.02150
H2338       H  0.37491122  0.82248619  0.84101035     0.10010
H2339       H  0.43189974  0.85578748  0.83636562     0.08030
Br2340     Br  0.40842385  0.87935325  0.85620757    -0.02580
C2341       C  0.40289454  0.65954072  0.66862504    -0.09210
C2342       C  0.41756184  0.66150397  0.65708588     0.06990
C2343       C  0.41587382  0.65596133  0.63907656    -0.02980
C2344       C  0.40003111  0.64791970  0.63326619    -0.07430
C2345       C  0.38552820  0.64565317  0.64494401     0.06100
C2346       C  0.38693034  0.65193545  0.66265790    -0.02450
Br2347     Br  0.36704923  0.65203575  0.67879819    -0.02150
H2348       H  0.40377631  0.66404573  0.68237579     0.10010
H2349       H  0.39888806  0.64370124  0.61943584     0.08030
Br2350     Br  0.43381108  0.66052065  0.62126942    -0.02580
C2351       C  0.33169528  0.66461137  0.59984010    -0.09210
C2352       C  0.33630671  0.64641033  0.60009644     0.06990
C2353       C  0.33411776  0.63618549  0.58439851    -0.02980
C2354       C  0.32723196  0.64417994  0.56892496    -0.07430
C2355       C  0.32247681  0.66236104  0.56865328     0.06100
C2356       C  0.32486644  0.67264904  0.58432398    -0.02450
Br2357     Br  0.32065153  0.69797263  0.58504652    -0.02150
H2358       H  0.33367337  0.67267584  0.61172184     0.10010
H2359       H  0.32567399  0.63612251  0.55698015     0.08030
Br2360     Br  0.34150438  0.61160859  0.58288729    -0.02580
C2361       C  0.33075603  0.58543940  0.63446152    -0.09210
C2362       C  0.33768071  0.59811463  0.64655702     0.06990
C2363       C  0.33637784  0.59446930  0.66513801    -0.02980
C2364       C  0.32843248  0.57859051  0.67105903    -0.07430
C2365       C  0.32151479  0.56612884  0.65891586     0.06100
C2366       C  0.32251985  0.56976682  0.64044839    -0.02450
Br2367     Br  0.31145224  0.55471012  0.62284475    -0.02150
H2368       H  0.33152432  0.58780621  0.62017237     0.10010
H2369       H  0.32758208  0.57598084  0.68531119     0.08030
Br2370     Br  0.34380662  0.61078958  0.68343398    -0.02580
C2371       C  0.62993618  0.64615301  0.58393392    -0.09210
C2372       C  0.64090733  0.64688138  0.59912566     0.06990
C2373       C  0.65827786  0.65385392  0.59765874    -0.02980
C2374       C  0.66452707  0.65962778  0.58101361    -0.07430
C2375       C  0.65367796  0.65866259  0.56565163     0.06100
C2376       C  0.63607244  0.65204046  0.56729634    -0.02450
Br2377     Br  0.61912373  0.65184663  0.54797636    -0.02150
H2378       H  0.61647411  0.64093394  0.58504131     0.10010
H2379       H  0.67798985  0.66485230  0.58009521     0.08030
Br2380     Br  0.67361654  0.65652758  0.61809201    -0.02580
C2381       C  0.59406247  0.66432806  0.65177193    -0.09210
C2382       C  0.59411347  0.64632538  0.64648833     0.06990
C2383       C  0.57846087  0.63608930  0.64855153    -0.02980
C2384       C  0.56327140  0.64384638  0.65612752    -0.07430
C2385       C  0.56317722  0.66184503  0.66154013     0.06100
C2386       C  0.57877591  0.67218741  0.65914151    -0.02450
Br2387     Br  0.57978211  0.69736363  0.66403994    -0.02150
H2388       H  0.60596106  0.67237792  0.64997111     0.10010
H2389       H  0.55137876  0.63574213  0.65764400     0.08030
Br2390     Br  0.57657147  0.61190318  0.64009114    -0.02580
C2391       C  0.64307323  0.59722664  0.66436882    -0.09210
C2392       C  0.64140244  0.59910139  0.64572138     0.06990
C2393       C  0.64580087  0.58443350  0.63460943    -0.02980
C2394       C  0.65199406  0.56853774  0.64226571    -0.07430
C2395       C  0.65362395  0.56673452  0.66087763     0.06100
C2396       C  0.64885184  0.58117492  0.67200255    -0.02450
Br2397     Br  0.64813567  0.57928888  0.69763910    -0.02150
H2398       H  0.63950015  0.60821849  0.67311088     0.10010
H2399       H  0.65538823  0.55742324  0.63360364     0.08030
Br2400     Br  0.64229621  0.58445271  0.60910120    -0.02580
loop_ 
_geom_bond_atom_site_label_1 
_geom_bond_atom_site_label_2 
_geom_bond_distance 
_geom_bond_site_symmetry_2 
_ccdc_geom_bond_type 
C1            C2   1.404       .  A
C1            C6   1.402       .  A
C1         C2392   1.481       .  S
C2            C3   1.401       .  A
C2            H7   1.084       .  S
C3            C4   1.401       .  A
C3         C2382   1.477       .  S
C4            C5   1.401       .  A
C4            H8   1.084       .  S
C5            C6   1.400       .  A
C5         C2372   1.472       .  S
C6            H9   1.083       .  S
C10          C11   1.407       .  A
C10          C15   1.401       .  A
C10        C2345   1.479       .  S
C11          C12   1.409       .  A
C11          H16   1.082       .  S
C12          C13   1.409       .  A
C12        C2362   1.495       .  S
C13          C14   1.402       .  A
C13          H17   1.084       .  S
C14          C15   1.399       .  A
C14        C2352   1.480       .  S
C15          H18   1.084       .  S
N19          N20   1.320       .  A
N19          C23   1.344       .  A
N19         Cu27   2.073       .  S
N20          C21   1.342       .  A
N20         Cu26   2.058       .  S
C21          C22   1.383       .  A
C21          H24   1.081       .  S
C22          C23   1.387       .  A
C22        C2342   1.480       .  S
C23          H25   1.082       .  S
Cu26         N29   2.058       .  S
Cu27         N37   2.073       .  S
Cu28         N30   2.073       .  S
Cu28         N36   2.075       .  S
N29          N30   1.320       .  A
N29          C33   1.340       .  A
N30          C31   1.346       .  A
C31          C32   1.388       .  A
C31          H34   1.081       .  S
C32          C33   1.383       .  A
C32        C2385   1.479       .  S
C33          H35   1.082       .  S
N36          N37   1.323       .  A
N36          C40   1.343       .  A
N37          C38   1.346       .  A
C38          C39   1.382       .  A
C38          H41   1.082       .  S
C39          C40   1.382       .  A
C39          C56   1.469       .  S
C40          H42   1.082       .  S
N43          N44   1.319       .  A
N43          C47   1.346       .  A
N43         Cu51   2.083       .  S
N44          C45   1.341       .  A
N44         Cu50   2.055       .  S
C45          C46   1.384       .  A
C45          H48   1.080       .  S
C46          C47   1.391       .  A
C46        C2322   1.485       .  S
C47          H49   1.082       .  S
Cu50         N53   2.056       .  S
Cu51         N61   2.084       .  S
Cu52         N54   2.080       .  S
Cu52         N60   2.081       .  S
N53          N54   1.321       .  A
N53          C57   1.341       .  A
N54          C55   1.347       .  A
C55          C56   1.386       .  A
C55          H58   1.082       .  S
C56          C57   1.379       .  A
C57          H59   1.082       .  S
N60          N61   1.322       .  A
N60          C64   1.346       .  A
N61          C62   1.345       .  A
C62          C63   1.389       .  A
C62          H65   1.082       .  S
C63          C64   1.388       .  A
C63        C2335   1.492       .  S
C64          H66   1.080       .  S
C67          C68   1.405       .  A
C67          C72   1.408       .  A
C67        C2312   1.488       .  S
C68          C69   1.401       .  A
C68          H73   1.083       .  S
C69          C70   1.398       .  A
C69        C2325   1.473       .  S
C70          C71   1.400       .  A
C70          H74   1.084       .  S
C71          C72   1.403       .  A
C71        C2302   1.474       .  S
C72          H75   1.084       .  S
C76          C77   1.406       .  A
C76          C81   1.408       .  A
C76        C2282   1.488       .  S
C77          C78   1.401       .  A
C77          H82   1.084       .  S
C78          C79   1.398       .  A
C78        C2292   1.475       .  S
C79          C80   1.401       .  A
C79          H83   1.084       .  S
C80          C81   1.405       .  A
C80        C2272   1.478       .  S
C81          H84   1.083       .  S
N85          N86   1.321       .  A
N85          C89   1.342       .  A
N85         Cu93   2.063       .  S
N86          C87   1.345       .  A
N86         Cu92   2.075       .  S
C87          C88   1.386       .  A
C87          H90   1.082       .  S
C88          C89   1.383       .  A
C88        C2275   1.480       .  S
C89          H91   1.081       .  S
Cu92         N95   2.075       .  S
Cu93        N103   2.063       .  S
Cu94         N96   2.056       .  S
Cu94        N102   2.055       .  S
N95          N96   1.322       .  A
N95          C99   1.344       .  A
N96          C97   1.342       .  A
C97          C98   1.379       .  A
C97         H100   1.082       .  S
C98          C99   1.384       .  A
C98         C122   1.466       .  S
C99         H101   1.082       .  S
N102        N103   1.320       .  A
N102        C106   1.342       .  A
N103        C104   1.343       .  A
C104        C105   1.383       .  A
C104        H107   1.082       .  S
C105        C106   1.382       .  A
C105       C2395   1.472       .  S
C106        H108   1.082       .  S
N109        N110   1.321       .  A
N109        C113   1.346       .  A
N109       Cu117   2.081       .  S
N110        C111   1.341       .  A
N110       Cu116   2.052       .  S
C111        C112   1.380       .  A
C111        H114   1.082       .  S
C112        C113   1.387       .  A
C112       C2265   1.476       .  S
C113        H115   1.082       .  S
Cu116       N119   2.052       .  S
Cu117       N127   2.082       .  S
Cu118       N120   2.073       .  S
Cu118       N126   2.074       .  S
N119        N120   1.321       .  A
N119        C123   1.342       .  A
N120        C121   1.345       .  A
C121        C122   1.384       .  A
C121        H124   1.082       .  S
C122        C123   1.379       .  A
C123        H125   1.082       .  S
N126        N127   1.322       .  A
N126        C130   1.345       .  A
N127        C128   1.345       .  A
C128        C129   1.388       .  A
C128        H131   1.082       .  S
C129        C130   1.386       .  A
C129       C2252   1.486       .  S
C130        H132   1.080       .  S
C133        C134   1.403       .  A
C133        C138   1.404       .  A
C133       C2232   1.479       .  S
C134        C135   1.402       .  A
C134        H139   1.084       .  S
C135        C136   1.403       .  A
C135       C2255   1.478       .  S
C136        C137   1.404       .  A
C136        H140   1.084       .  S
C137        C138   1.405       .  A
C137       C2242   1.485       .  S
C138        H141   1.084       .  S
C142        C143   1.402       .  A
C142        C147   1.404       .  A
C142       C2212   1.479       .  S
C143        C144   1.399       .  A
C143        H148   1.084       .  S
C144        C145   1.402       .  A
C144       C2222   1.474       .  S
C145        C146   1.406       .  A
C145        H149   1.083       .  S
C146        C147   1.409       .  A
C146       C2202   1.491       .  S
C147        H150   1.084       .  S
N151        N152   1.322       .  A
N151        C155   1.342       .  A
N151       Cu159   2.069       .  S
N152        C153   1.346       .  A
N152       Cu158   2.069       .  S
C153        C154   1.385       .  A
C153        H156   1.082       .  S
C154        C155   1.384       .  A
C154       C2205   1.478       .  S
C155        H157   1.082       .  S
Cu158       N161   2.070       .  S
Cu159       N169   2.069       .  S
Cu160       N162   2.056       .  S
Cu160       N168   2.056       .  S
N161        N162   1.322       .  A
N161        C165   1.342       .  A
N162        C163   1.343       .  A
C163        C164   1.379       .  A
C163        H166   1.082       .  S
C164        C165   1.382       .  A
C164        C188   1.464       .  S
C165        H167   1.082       .  S
N168        N169   1.320       .  A
N168        C172   1.341       .  A
N169        C170   1.344       .  A
C170        C171   1.386       .  A
C170        H173   1.081       .  S
C171        C172   1.383       .  A
C171       C2375   1.478       .  S
C172        H174   1.082       .  S
N175        N176   1.320       .  A
N175        C179   1.344       .  A
N175       Cu183   2.078       .  S
N176        C177   1.342       .  A
N176       Cu182   2.050       .  S
C177        C178   1.381       .  A
C177        H180   1.081       .  S
C178        C179   1.387       .  A
C178       C2192   1.476       .  S
C179        H181   1.082       .  S
Cu182       N185   2.050       .  S
Cu183       N193   2.079       .  S
Cu184       N186   2.074       .  S
Cu184       N192   2.074       .  S
N185        N186   1.321       .  A
N185        C189   1.340       .  A
N186        C187   1.345       .  A
C187        C188   1.384       .  A
C187        H190   1.082       .  S
C188        C189   1.378       .  A
C189        H191   1.082       .  S
N192        N193   1.323       .  A
N192        C196   1.345       .  A
N193        C194   1.345       .  A
C194        C195   1.386       .  A
C194        H197   1.081       .  S
C195        C196   1.385       .  A
C195       C2182   1.482       .  S
C196        H198   1.082       .  S
C199        C200   1.403       .  A
C199        C204   1.405       .  A
C199       C2162   1.485       .  S
C200        C201   1.403       .  A
C200        H205   1.084       .  S
C201        C202   1.403       .  A
C201       C2185   1.484       .  S
C202        C203   1.406       .  A
C202        H206   1.084       .  S
C203        C204   1.406       .  A
C203       C2172   1.487       .  S
C204        H207   1.083       .  S
N208        N209   1.320       .  A
N208        C212   1.343       .  A
N208       Cu216   2.070       .  S
N209        C210   1.346       .  A
N209       Cu215   2.072       .  S
C210        C211   1.387       .  A
C210        H213   1.082       .  S
C211        C212   1.386       .  A
C211       C2152   1.484       .  S
C212        H214   1.081       .  S
Cu215       N218   2.072       .  S
Cu216       N226   2.071   1_556  S
Cu217       N219   2.071       .  S
Cu217       N225   2.071       .  S
N218        N219   1.323   1_556  A
N218        C222   1.342       .  A
N219        C220   1.347       .  A
C220        C221   1.382   1_554  A
C220        H223   1.082       .  S
C221        C222   1.382       .  A
C221        C245   1.469       .  S
C222        H224   1.082       .  S
N225        N226   1.321       .  A
N225        C229   1.343       .  A
N226        C227   1.344       .  A
C227        C228   1.387       .  A
C227        H230   1.080       .  S
C228        C229   1.387       .  A
C228       C2142   1.485       .  S
C229        H231   1.082       .  S
N232        N233   1.319       .  A
N232        C236   1.345       .  A
N232       Cu240   2.088       .  S
N233        C234   1.342       .  A
N233       Cu239   2.049       .  S
C234        C235   1.384       .  A
C234        H237   1.080       .  S
C235        C236   1.394       .  A
C235       C2132   1.488       .  S
C236        H238   1.082       .  S
Cu239       N242   2.050       .  S
Cu240       N250   2.089   1_556  S
Cu241       N243   2.083       .  S
Cu241       N249   2.085       .  S
N242        N243   1.321   1_556  A
N242        C246   1.339       .  A
N243        C244   1.349       .  A
C244        C245   1.387   1_554  A
C244        H247   1.082       .  S
C245        C246   1.378       .  A
C246        H248   1.082       .  S
N249        N250   1.324       .  A
N249        C253   1.345       .  A
N250        C251   1.348       .  A
C251        C252   1.388       .  A
C251        H254   1.081       .  S
C252        C253   1.386       .  A
C252       C2122   1.488       .  S
C253        H255   1.082       .  S
N256        N257   1.321       .  A
N256        C260   1.346       .  A
N256       Cu264   2.083       .  S
N257        C258   1.342       .  A
N257       Cu263   2.052       .  S
C258        C259   1.380       .  A
C258        H261   1.082       .  S
C259        C260   1.388       .  A
C259       C2112   1.476       .  S
C260        H262   1.082       .  S
Cu263       N266   2.052       .  S
Cu264       N274   2.084       .  S
Cu265       N267   2.073       .  S
Cu265       N273   2.073       .  S
N266        N267   1.321       .  A
N266        C270   1.341       .  A
N267        C268   1.346       .  A
C268        C269   1.384       .  A
C268        H271   1.082       .  S
C269        C270   1.379       .  A
C269        C293   1.465       .  S
C270        H272   1.082       .  S
N273        N274   1.322       .  A
N273        C277   1.344       .  A
N274        C275   1.345       .  A
C275        C276   1.388       .  A
C275        H278   1.082       .  S
C276        C277   1.386       .  A
C276       C2102   1.486       .  S
C277        H279   1.081       .  S
N280        N281   1.321       .  A
N280        C284   1.343       .  A
N280       Cu288   2.072       .  S
N281        C282   1.344       .  A
N281       Cu287   2.066       .  S
C282        C283   1.384       .  A
C282        H285   1.081       .  S
C283        C284   1.385       .  A
C283       C2092   1.479       .  S
C284        H286   1.082       .  S
Cu287       N290   2.066       .  S
Cu288       N298   2.071       .  S
Cu289       N291   2.061       .  S
Cu289       N297   2.061       .  S
N290        N291   1.321       .  A
N290        C294   1.342       .  A
N291        C292   1.344       .  A
C292        C293   1.381       .  A
C292        H295   1.082       .  S
C293        C294   1.382       .  A
C294        H296   1.082       .  S
N297        N298   1.320       .  A
N297        C301   1.341       .  A
N298        C299   1.344       .  A
C299        C300   1.389       .  A
C299        H302   1.082       .  S
C300        C301   1.386       .  A
C300       C2082   1.485       .  S
C301        H303   1.079       .  S
C304        C305   1.404       .  A
C304        C309   1.404       .  A
C304       C2145   1.480       .  S
C305        C306   1.403       .  A
C305        H310   1.084       .  S
C306        C307   1.402       .  A
C306       C2095   1.484       .  S
C307        C308   1.401       .  A
C307        H311   1.084       .  S
C308        C309   1.403       .  A
C308       C2072   1.477       .  S
C309        H312   1.084       .  S
N313        N314   1.320       .  A
N313        C317   1.344       .  A
N313       Cu321   2.073       .  S
N314        C315   1.346       .  A
N314       Cu320   2.085       .  S
C315        C316   1.392       .  A
C315        H318   1.081       .  S
C316        C317   1.390       .  A
C316       C2052   1.496       .  S
C317        H319   1.077       .  S
Cu320       N323   2.085       .  S
Cu321       N331   2.073       .  S
Cu322       N324   2.073       .  S
Cu322       N330   2.072       .  S
N323        N324   1.323       .  A
N323        C327   1.346       .  A
N324        C325   1.346       .  A
C325        C326   1.383       .  A
C325        H328   1.082       .  S
C326        C327   1.385       .  A
C326        C350   1.475       .  S
C327        H329   1.082       .  S
N330        N331   1.321       .  A
N330        C334   1.345       .  A
N331        C332   1.344       .  A
C332        C333   1.386       .  A
C332        H335   1.082       .  S
C333        C334   1.386       .  A
C333       C2062   1.482       .  S
C334        H336   1.081       .  S
N337        N338   1.322       .  A
N337        C341   1.345       .  A
N337       Cu345   2.081       .  S
N338        C339   1.348       .  A
N338       Cu344   2.090       .  S
C339        C340   1.391       .  A
C339        H342   1.081       .  S
C340        C341   1.388       .  A
C340       C2042   1.493       .  S
C341        H343   1.082       .  S
Cu344       N347   2.090       .  S
Cu345       N355   2.080       .  S
Cu346       N348   2.072       .  S
Cu346       N354   2.072       .  S
N347        N348   1.323       .  A
N347        C351   1.348       .  A
N348        C349   1.345       .  A
C349        C350   1.382       .  A
C349        H352   1.082       .  S
C350        C351   1.386       .  A
C351        H353   1.082       .  S
N354        N355   1.321       .  A
N354        C358   1.346       .  A
N355        C356   1.345       .  A
C356        C357   1.388       .  A
C356        H359   1.081       .  S
C357        C358   1.386       .  A
C357       C2032   1.487       .  S
C358        H360   1.082       .  S
C361        C362   1.407       .  A
C361        C366   1.407       .  A
C361       C2045   1.488       .  S
C362        C363   1.407       .  A
C362        H367   1.084       .  S
C363        C364   1.404       .  A
C363       C2125   1.488       .  S
C364        C365   1.405       .  A
C364        H368   1.084       .  S
C365        C366   1.406       .  A
C365       C2025   1.489       .  S
C366        H369   1.083       .  S
N370        N371   1.321       .  A
N370        C374   1.345       .  A
N370       Cu378   2.075       .  S
N371        C372   1.346       .  A
N371       Cu377   2.076       .  S
C372        C373   1.387       .  A
C372        H375   1.081       .  S
C373        C374   1.387       .  A
C373       C2015   1.486       .  S
C374        H376   1.082       .  S
Cu377       N380   2.077       .  S
Cu378       N388   2.076   1_565  S
Cu379       N381   2.075       .  S
Cu379       N387   2.075       .  S
N380        N381   1.323   1_565  A
N380        C384   1.343       .  A
N381        C382   1.348       .  A
C382        C383   1.384   1_545  A
C382        H385   1.082       .  S
C383        C384   1.383       .  A
C383        C407   1.473       .  S
C384        H386   1.082       .  S
N387        N388   1.322       .  A
N387        C391   1.345       .  A
N388        C389   1.345       .  A
C389        C390   1.386       .  A
C389        H392   1.081       .  S
C390        C391   1.385       .  A
C390       C2002   1.483       .  S
C391        H393   1.082       .  S
N394        N395   1.320       .  A
N394        C398   1.345       .  A
N394       Cu402   2.079       .  S
N395        C396   1.344       .  A
N395       Cu401   2.061       .  S
C396        C397   1.384       .  A
C396        H399   1.082       .  S
C397        C398   1.389       .  A
C397       C1992   1.484       .  S
C398        H400   1.081       .  S
Cu401       N404   2.061       .  S
Cu402       N412   2.080   1_565  S
Cu403       N405   2.090       .  S
Cu403       N411   2.091       .  S
N404        N405   1.322   1_565  A
N404        C408   1.341       .  A
N405        C406   1.349       .  A
C406        C407   1.387   1_545  A
C406        H409   1.082       .  S
C407        C408   1.380       .  A
C408        H410   1.082       .  S
N411        N412   1.323       .  A
N411        C415   1.347       .  A
N412        C413   1.345       .  A
C413        C414   1.386       .  A
C413        H416   1.081       .  S
C414        C415   1.388       .  A
C414       C2022   1.487       .  S
C415        H417   1.082       .  S
N418        N419   1.320       .  A
N418        C422   1.343       .  A
N418       Cu426   2.071       .  S
N419        C420   1.344       .  A
N419       Cu425   2.066       .  S
C420        C421   1.385       .  A
C420        H423   1.081       .  S
C421        C422   1.386       .  A
C421       C1982   1.482       .  S
C422        H424   1.082       .  S
Cu425       N428   2.066       .  S
Cu426       N436   2.071   1_655  S
Cu427       N429   2.073   1_455  S
Cu427       N435   2.073       .  S
N428        N429   1.322       .  A
N428        C432   1.343       .  A
N429        C430   1.345       .  A
C430        C431   1.383       .  A
C430        H433   1.082   1_655  S
C431        C432   1.381       .  A
C431        C455   1.468       .  S
C432        H434   1.082       .  S
N435        N436   1.321       .  A
N435        C439   1.344       .  A
N436        C437   1.344       .  A
C437        C438   1.386       .  A
C437        H440   1.081       .  S
C438        C439   1.387       .  A
C438       C1972   1.484       .  S
C439        H441   1.082       .  S
N442        N443   1.321       .  A
N442        C446   1.343       .  A
N442       Cu450   2.073       .  S
N443        C444   1.346       .  A
N443       Cu449   2.070       .  S
C444        C445   1.384       .  A
C444        H447   1.082       .  S
C445        C446   1.385       .  A
C445       C1962   1.479       .  S
C446        H448   1.082       .  S
Cu449       N452   2.070       .  S
Cu450       N460   2.073   1_655  S
Cu451       N453   2.068   1_455  S
Cu451       N459   2.068       .  S
N452        N453   1.322       .  A
N452        C456   1.343       .  A
N453        C454   1.345       .  A
C454        C455   1.382       .  A
C454        H457   1.082   1_655  S
C455        C456   1.382       .  A
C456        H458   1.082       .  S
N459        N460   1.321       .  A
N459        C463   1.344       .  A
N460        C461   1.344       .  A
C461        C462   1.385       .  A
C461        H464   1.081       .  S
C462        C463   1.384       .  A
C462       C2075   1.479       .  S
C463        H465   1.082       .  S
N466        N467   1.321       .  A
N466        C470   1.345       .  A
N466       Cu474   2.074       .  S
N467        C468   1.342       .  A
N467       Cu473   2.061       .  S
C468        C469   1.382       .  A
C468        H471   1.082       .  S
C469        C470   1.386       .  A
C469       C1955   1.478       .  S
C470        H472   1.081       .  S
Cu473       N476   2.061       .  S
Cu474       N484   2.075       .  S
Cu475       N477   2.070       .  S
Cu475       N483   2.070       .  S
N476        N477   1.321       .  A
N476        C480   1.342       .  A
N477        C478   1.345       .  A
C478        C479   1.383       .  A
C478        H481   1.082       .  S
C479        C480   1.381       .  A
C479        C503   1.467       .  S
C480        H482   1.082       .  S
N483        N484   1.322       .  A
N483        C487   1.344       .  A
N484        C485   1.344       .  A
C485        C486   1.385       .  A
C485        H488   1.081       .  S
C486        C487   1.384       .  A
C486       C1942   1.480       .  S
C487        H489   1.082       .  S
N490        N491   1.321       .  A
N490        C494   1.342       .  A
N490       Cu498   2.068       .  S
N491        C492   1.345       .  A
N491       Cu497   2.070       .  S
C492        C493   1.384       .  A
C492        H495   1.082       .  S
C493        C494   1.383       .  A
C493       C1932   1.477       .  S
C494        H496   1.082       .  S
Cu497       N500   2.070       .  S
Cu498       N508   2.068       .  S
Cu499       N501   2.067       .  S
Cu499       N507   2.067       .  S
N500        N501   1.322       .  A
N500        C504   1.343       .  A
N501        C502   1.344       .  A
C502        C503   1.381       .  A
C502        H505   1.082       .  S
C503        C504   1.382       .  A
C504        H506   1.082       .  S
N507        N508   1.321       .  A
N507        C511   1.344       .  A
N508        C509   1.344       .  A
C509        C510   1.384       .  A
C509        H512   1.082       .  S
C510        C511   1.383       .  A
C510       C1922   1.476       .  S
C511        H513   1.082       .  S
C514        C515   1.405       .  A
C514        C519   1.403       .  A
C514       C1935   1.485       .  S
C515        C516   1.407       .  A
C515        H520   1.083       .  S
C516        C517   1.406       .  A
C516       C2005   1.486       .  S
C517        C518   1.401       .  A
C517        H521   1.084       .  S
C518        C519   1.398       .  A
C518       C1975   1.474       .  S
C519        H522   1.084       .  S
C523        C524   1.399       .  A
C523        C528   1.400       .  A
C523       C1952   1.476       .  S
C524        C525   1.403       .  A
C524        H529   1.084       .  S
C525        C526   1.406       .  A
C525       C2115   1.486       .  S
C526        C527   1.407       .  A
C526        H530   1.082       .  S
C527        C528   1.405       .  A
C527       C2065   1.486       .  S
C528        H531   1.084       .  S
N532        N533   1.321       .  A
N532        C536   1.345       .  A
N532       Cu540   2.074       .  S
N533        C534   1.345       .  A
N533       Cu539   2.074       .  S
C534        C535   1.386       .  A
C534        H537   1.081       .  S
C535        C536   1.386       .  A
C535       C2245   1.483       .  S
C536        H538   1.082       .  S
Cu539       N542   2.074       .  S
Cu540       N550   2.074   1_556  S
Cu541       N543   2.070       .  S
Cu541       N549   2.070       .  S
N542        N543   1.322   1_556  A
N542        C546   1.343       .  A
N543        C544   1.346       .  A
C544        C545   1.383   1_554  A
C544        H547   1.082       .  S
C545        C546   1.383       .  A
C545        C569   1.470       .  S
C546        H548   1.082       .  S
N549        N550   1.322       .  A
N549        C553   1.344       .  A
N550        C551   1.344       .  A
C551        C552   1.385       .  A
C551        H554   1.082       .  S
C552        C553   1.383       .  A
C552       C1915   1.478       .  S
C553        H555   1.082       .  S
N556        N557   1.321       .  A
N556        C560   1.345       .  A
N556       Cu564   2.081       .  S
N557        C558   1.344       .  A
N557       Cu563   2.058       .  S
C558        C559   1.381       .  A
C558        H561   1.082       .  S
C559        C560   1.387       .  A
C559       C2315   1.478       .  S
C560        H562   1.082       .  S
Cu563       N566   2.058       .  S
Cu564       N574   2.082   1_556  S
Cu565       N567   2.084       .  S
Cu565       N573   2.085       .  S
N566        N567   1.322   1_556  A
N566        C570   1.341       .  A
N567        C568   1.348       .  A
C568        C569   1.386   1_554  A
C568        H571   1.082       .  S
C569        C570   1.379       .  A
C570        H572   1.082       .  S
N573        N574   1.324       .  A
N573        C577   1.347       .  A
N574        C575   1.346       .  A
C575        C576   1.385       .  A
C575        H578   1.082       .  S
C576        C577   1.385       .  A
C576       C1902   1.483       .  S
C577        H579   1.082       .  S
C580        C581   1.404       .  A
C580        C585   1.405       .  A
C580       C1882   1.483       .  S
C581        C582   1.403       .  A
C581        H586   1.083       .  S
C582        C583   1.403       .  A
C582       C1892   1.483       .  S
C583        C584   1.403       .  A
C583        H587   1.084       .  S
C584        C585   1.402       .  A
C584       C1875   1.483       .  S
C585        H588   1.084       .  S
C589        C590   1.406       .  A
C589        C594   1.407       .  A
C589       C1852   1.487       .  S
C590        C591   1.406       .  A
C590        H595   1.084       .  S
C591        C592   1.404       .  A
C591       C1862   1.488       .  S
C592        C593   1.405       .  A
C592        H596   1.084       .  S
C593        C594   1.406       .  A
C593       C1842   1.487       .  S
C594        H597   1.084       .  S
N598        N599   1.321       .  A
N598        C602   1.343       .  A
N598       Cu606   2.067       .  S
N599        C600   1.346       .  A
N599       Cu605   2.074       .  S
C600        C601   1.387       .  A
C600        H603   1.081       .  S
C601        C602   1.384       .  A
C601       C1835   1.481       .  S
C602        H604   1.082       .  S
Cu605       N608   2.074       .  S
Cu606       N616   2.067       .  S
Cu607       N609   2.079       .  S
Cu607       N615   2.079       .  S
N608        N609   1.323       .  A
N608        C612   1.344       .  A
N609        C610   1.347       .  A
C610        C611   1.384       .  A
C610        H613   1.082       .  S
C611        C612   1.382       .  A
C611        C635   1.472       .  S
C612        H614   1.082       .  S
N615        N616   1.322       .  A
N615        C619   1.346       .  A
N616        C617   1.344       .  A
C617        C618   1.382       .  A
C617        H620   1.082       .  S
C618        C619   1.385       .  A
C618       C2365   1.477       .  S
C619        H621   1.082       .  S
N622        N623   1.321       .  A
N622        C626   1.344       .  A
N622       Cu630   2.070       .  S
N623        C624   1.345       .  A
N623       Cu629   2.072       .  S
C624        C625   1.385       .  A
C624        H627   1.082       .  S
C625        C626   1.384       .  A
C625       C1822   1.479       .  S
C626        H628   1.082       .  S
Cu629       N632   2.073       .  S
Cu630       N640   2.070       .  S
Cu631       N633   2.078       .  S
Cu631       N639   2.078       .  S
N632        N633   1.323       .  A
N632        C636   1.344       .  A
N633        C634   1.347       .  A
C634        C635   1.384       .  A
C634        H637   1.082       .  S
C635        C636   1.382       .  A
C636        H638   1.082       .  S
N639        N640   1.322       .  A
N639        C643   1.345       .  A
N640        C641   1.344       .  A
C641        C642   1.384       .  A
C641        H644   1.082       .  S
C642        C643   1.386       .  A
C642       C1895   1.481       .  S
C643        H645   1.081       .  S
C646        C647   1.405       .  A
C646        C651   1.402       .  A
C646       C1832   1.483       .  S
C647        C648   1.406       .  A
C647        H652   1.084       .  S
C648        C649   1.405       .  A
C648       C1812   1.484       .  S
C649        C650   1.402       .  A
C649        H653   1.084       .  S
C650        C651   1.401       .  A
C650       C1945   1.480       .  S
C651        H654   1.084       .  S
N655        N656   1.321       .  A
N655        C659   1.344       .  A
N655       Cu663   2.071       .  S
N656        C657   1.346       .  A
N656       Cu662   2.076       .  S
C657        C658   1.386       .  A
C657        H660   1.082       .  S
C658        C659   1.385       .  A
C658       C1815   1.481       .  S
C659        H661   1.081       .  S
Cu662       N665   2.076       .  S
Cu663       N673   2.071       .  S
Cu664       N666   2.070       .  S
Cu664       N672   2.070       .  S
N665        N666   1.323       .  A
N665        C669   1.343       .  A
N666        C667   1.346       .  A
C667        C668   1.382       .  A
C667        H670   1.082       .  S
C668        C669   1.383       .  A
C668        C692   1.470       .  S
C669        H671   1.082       .  S
N672        N673   1.322       .  A
N672        C676   1.344       .  A
N673        C674   1.344       .  A
C674        C675   1.384       .  A
C674        H677   1.082       .  S
C675        C676   1.383       .  A
C675       C2285   1.477       .  S
C676        H678   1.082       .  S
N679        N680   1.321       .  A
N679        C683   1.345       .  A
N679       Cu687   2.082       .  S
N680        C681   1.343       .  A
N680       Cu686   2.057       .  S
C681        C682   1.382       .  A
C681        H684   1.082       .  S
C682        C683   1.387       .  A
C682       C1802   1.479       .  S
C683        H685   1.082       .  S
Cu686       N689   2.058       .  S
Cu687       N697   2.083       .  S
Cu688       N690   2.084       .  S
Cu688       N696   2.085       .  S
N689        N690   1.322       .  A
N689        C693   1.341       .  A
N690        C691   1.348       .  A
C691        C692   1.386       .  A
C691        H694   1.082       .  S
C692        C693   1.379       .  A
C693        H695   1.082       .  S
N696        N697   1.323       .  A
N696        C700   1.346       .  A
N697        C698   1.346       .  A
C698        C699   1.387       .  A
C698        H701   1.081       .  S
C699        C700   1.387       .  A
C699       C1865   1.487       .  S
C700        H702   1.082       .  S
N703        N704   1.323       .  A
N703        C707   1.346       .  A
N703       Cu711   2.083       .  S
N704        C705   1.347       .  A
N704       Cu710   2.084       .  S
C705        C706   1.388       .  A
C705        H708   1.081       .  S
C706        C707   1.387       .  A
C706       C1855   1.488       .  S
C707        H709   1.082       .  S
Cu710       N713   2.083       .  S
Cu711       N721   2.083   1_556  S
Cu712       N714   2.066   1_554  S
Cu712       N720   2.067       .  S
N713        N714   1.322       .  A
N713        C717   1.347       .  A
N714        C715   1.344   1_556  A
C715        C716   1.381   1_554  A
C715        H718   1.082       .  S
C716        C717   1.385       .  A
C716        C740   1.471       .  S
C717        H719   1.082       .  S
N720        N721   1.321       .  A
N720        C724   1.344       .  A
N721        C722   1.346       .  A
C722        C723   1.387       .  A
C722        H725   1.082       .  S
C723        C724   1.384       .  A
C723       C1792   1.482       .  S
C724        H726   1.081       .  S
N727        N728   1.322       .  A
N727        C731   1.346       .  A
N727       Cu735   2.080   1_554  S
N728        C729   1.345       .  A
N728       Cu734   2.077       .  S
C729        C730   1.385       .  A
C729        H732   1.082       .  S
C730        C731   1.386       .  A
C730       C1772   1.482       .  S
C731        H733   1.082       .  S
Cu734       N737   2.077   1_554  S
Cu735       N745   2.079       .  S
Cu736       N738   2.067       .  S
Cu736       N744   2.067       .  S
N737        N738   1.322       .  A
N737        C741   1.345   1_556  A
N738        C739   1.345       .  A
C739        C740   1.382       .  A
C739        H742   1.082       .  S
C740        C741   1.384   1_556  A
C741        H743   1.082       .  S
N744        N745   1.321       .  A
N744        C748   1.344       .  A
N745        C746   1.344       .  A
C746        C747   1.389       .  A
C746        H749   1.082       .  S
C747        C748   1.386       .  A
C747       C1782   1.486       .  S
C748        H750   1.080       .  S
C751        C752   1.406       .  A
C751        C756   1.406       .  A
C751       C1762   1.486       .  S
C752        C753   1.405       .  A
C752        H757   1.084       .  S
C753        C754   1.404       .  A
C753       C2035   1.483       .  S
C754        C755   1.403       .  A
C754        H758   1.084       .  S
C755        C756   1.405       .  A
C755       C1795   1.488       .  S
C756        H759   1.084       .  S
N760        N761   1.322       .  A
N760        C764   1.345       .  A
N760       Cu768   2.079       .  S
N761        C762   1.346       .  A
N761       Cu767   2.082       .  S
C762        C763   1.388       .  A
C762        H765   1.081       .  S
C763        C764   1.387       .  A
C763       C1752   1.488       .  S
C764        H766   1.082       .  S
Cu767       N770   2.082       .  S
Cu768       N778   2.079   1_565  S
Cu769       N771   2.076   1_545  S
Cu769       N777   2.076       .  S
N770        N771   1.323       .  A
N770        C774   1.347       .  A
N771        C772   1.344   1_565  A
C772        C773   1.383   1_545  A
C772        H775   1.082       .  S
C773        C774   1.384       .  A
C773        C797   1.473       .  S
C774        H776   1.082       .  S
N777        N778   1.321       .  A
N777        C781   1.346       .  A
N778        C779   1.345       .  A
C779        C780   1.387       .  A
C779        H782   1.081       .  S
C780        C781   1.387       .  A
C780       C1765   1.485       .  S
C781        H783   1.082       .  S
N784        N785   1.320       .  A
N784        C788   1.344       .  A
N784       Cu792   2.072   1_545  S
N785        C786   1.345       .  A
N785       Cu791   2.070       .  S
C786        C787   1.387       .  A
C786        H789   1.081       .  S
C787        C788   1.387       .  A
C787       C1732   1.485       .  S
C788        H790   1.082       .  S
Cu791       N794   2.071   1_545  S
Cu792       N802   2.072       .  S
Cu793       N795   2.082       .  S
Cu793       N801   2.081       .  S
N794        N795   1.323       .  A
N794        C798   1.343   1_565  A
N795        C796   1.348       .  A
C796        C797   1.385       .  A
C796        H799   1.082       .  S
C797        C798   1.382   1_565  A
C798        H800   1.082       .  S
N801        N802   1.322       .  A
N801        C805   1.346       .  A
N802        C803   1.343       .  A
C803        C804   1.386       .  A
C803        H806   1.080       .  S
C804        C805   1.388       .  A
C804       C1742   1.486       .  S
C805        H807   1.082       .  S
C808        C809   1.407       .  A
C808        C813   1.406       .  A
C808       C1755   1.486       .  S
C809        C810   1.407       .  A
C809        H814   1.083       .  S
C810        C811   1.406       .  A
C810       C1905   1.490       .  S
C811        C812   1.402       .  A
C811        H815   1.084       .  S
C812        C813   1.403       .  A
C812       C1722   1.481       .  S
C813        H816   1.084       .  S
N817        N818   1.321       .  A
N817        C821   1.344       .  A
N817       Cu825   2.063       .  S
N818        C819   1.343       .  A
N818       Cu824   2.067       .  S
C819        C820   1.384       .  A
C819        H822   1.082       .  S
C820        C821   1.383       .  A
C820       C1885   1.475       .  S
C821        H823   1.082       .  S
Cu824       N827   2.067   1_556  S
Cu825       N835   2.063       .  S
Cu826       N828   2.078       .  S
Cu826       N834   2.079       .  S
N827        N828   1.321       .  A
N827        C831   1.342       .  A
N828        C829   1.347       .  A
C829        C830   1.388       .  A
C829        H832   1.081       .  S
C830        C831   1.384       .  A
C830       C1712   1.482       .  S
C831        H833   1.082       .  S
N834        N835   1.323   1_554  A
N834        C838   1.343       .  A
N835        C836   1.345       .  A
C836        C837   1.380       .  A
C836        H839   1.082       .  S
C837        C838   1.384   1_556  A
C837        C854   1.468       .  S
C838        H840   1.082       .  S
N841        N842   1.319       .  A
N841        C845   1.347       .  A
N841       Cu849   2.084   1_554  S
N842        C843   1.340       .  A
N842       Cu848   2.041       .  S
C843        C844   1.379       .  A
C843        H846   1.081       .  S
C844        C845   1.390       .  A
C844       C1692   1.476       .  S
C845        H847   1.082       .  S
Cu848       N851   2.041       .  S
Cu849       N859   2.086       .  S
Cu850       N852   2.088       .  S
Cu850       N858   2.090       .  S
N851        N852   1.320   1_554  A
N851        C855   1.339       .  A
N852        C853   1.349       .  A
C853        C854   1.389       .  A
C853        H856   1.082       .  S
C854        C855   1.376   1_556  A
C855        H857   1.082       .  S
N858        N859   1.325       .  A
N858        C862   1.347       .  A
N859        C860   1.346       .  A
C860        C861   1.384       .  A
C860        H863   1.082       .  S
C861        C862   1.386       .  A
C861       C1705   1.484       .  S
C862        H864   1.082       .  S
C865        C866   1.402       .  A
C865        C870   1.405       .  A
C865       C1682   1.482       .  S
C866        C867   1.398       .  A
C866        H871   1.083       .  S
C867        C868   1.400       .  A
C867       C2085   1.468       .  S
C868        C869   1.403       .  A
C868        H872   1.084       .  S
C869        C870   1.403       .  A
C869       C1715   1.479       .  S
C870        H873   1.084       .  S
N874        N875   1.321       .  A
N874        C878   1.342       .  A
N874       Cu882   2.068       .  S
N875        C876   1.345       .  A
N875       Cu881   2.073       .  S
C876        C877   1.386       .  A
C876        H879   1.082       .  S
C877        C878   1.384       .  A
C877       C1672   1.480       .  S
C878        H880   1.081       .  S
Cu881       N884   2.073       .  S
Cu882       N892   2.068   1_655  S
Cu883       N885   2.058   1_455  S
Cu883       N891   2.058       .  S
N884        N885   1.322       .  A
N884        C888   1.344       .  A
N885        C886   1.343   1_655  A
C886        C887   1.379   1_455  A
C886        H889   1.082       .  S
C887        C888   1.383       .  A
C887        C911   1.465       .  S
C888        H890   1.082       .  S
N891        N892   1.321       .  A
N891        C895   1.343       .  A
N892        C893   1.344       .  A
C893        C894   1.383       .  A
C893        H896   1.082       .  S
C894        C895   1.380       .  A
C894       C1685   1.471       .  S
C895        H897   1.082       .  S
N898        N899   1.319       .  A
N898        C902   1.343       .  A
N898       Cu906   2.075       .  S
N899        C900   1.342       .  A
N899       Cu905   2.053       .  S
C900        C901   1.385       .  A
C900        H903   1.080       .  S
C901        C902   1.390       .  A
C901       C1662   1.485       .  S
C902        H904   1.082       .  S
Cu905       N908   2.054       .  S
Cu906       N916   2.076   1_655  S
Cu907       N909   2.075   1_455  S
Cu907       N915   2.076       .  S
N908        N909   1.322       .  A
N908        C912   1.341       .  A
N909        C910   1.345   1_655  A
C910        C911   1.384   1_455  A
C910        H913   1.082       .  S
C911        C912   1.378       .  A
C912        H914   1.082       .  S
N915        N916   1.322       .  A
N915        C919   1.345       .  A
N916        C917   1.344       .  A
C917        C918   1.386       .  A
C917        H920   1.081       .  S
C918        C919   1.386       .  A
C918       C1652   1.485       .  S
C919        H921   1.082       .  S
C922        C923   1.404       .  A
C922        C927   1.404       .  A
C922       C1912   1.484       .  S
C923        C924   1.401       .  A
C923        H928   1.084       .  S
C924        C925   1.401       .  A
C924       C1675   1.477       .  S
C925        C926   1.402       .  A
C925        H929   1.084       .  S
C926        C927   1.404       .  A
C926       C1642   1.479       .  S
C927        H930   1.083       .  S
N931        N932   1.321       .  A
N931        C935   1.345       .  A
N931       Cu939   2.075       .  S
N932        C933   1.346       .  A
N932       Cu938   2.077       .  S
C933        C934   1.385       .  A
C933        H936   1.082       .  S
C934        C935   1.385       .  A
C934       C2175   1.481       .  S
C935        H937   1.082       .  S
Cu938       N941   2.078       .  S
Cu939       N949   2.075   1_565  S
Cu940       N942   2.073       .  S
Cu940       N948   2.073       .  S
N941        N942   1.323   1_565  A
N941        C945   1.343       .  A
N942        C943   1.347       .  A
C943        C944   1.383   1_545  A
C943        H946   1.082       .  S
C944        C945   1.384       .  A
C944        C968   1.472       .  S
C945        H947   1.082       .  S
N948        N949   1.321       .  A
N948        C952   1.345       .  A
N949        C950   1.344       .  A
C950        C951   1.388       .  A
C950        H953   1.082       .  S
C951        C952   1.387       .  A
C951       C1632   1.487       .  S
C952        H954   1.080       .  S
N955        N956   1.319       .  A
N955        C959   1.345       .  A
N955       Cu963   2.078       .  S
N956        C957   1.343       .  A
N956       Cu962   2.059       .  S
C957        C958   1.385       .  A
C957        H960   1.082       .  S
C958        C959   1.390       .  A
C958       C2305   1.486       .  S
C959        H961   1.080       .  S
Cu962       N965   2.059       .  S
Cu963       N973   2.079   1_565  S
Cu964       N966   2.090       .  S
Cu964       N972   2.090       .  S
N965        N966   1.322   1_565  A
N965        C969   1.341       .  A
N966        C967   1.349       .  A
C967        C968   1.387   1_545  A
C967        H970   1.082       .  S
C968        C969   1.379       .  A
C969        H971   1.082       .  S
N972        N973   1.323       .  A
N972        C976   1.347       .  A
N973        C974   1.345       .  A
C974        C975   1.386       .  A
C974        H977   1.081       .  S
C975        C976   1.388       .  A
C975       C1845   1.488       .  S
C976        H978   1.082       .  S
N979        N980   1.321       .  A
N979        C983   1.345       .  A
N979       Cu987   2.074       .  S
N980        C981   1.345       .  A
N980       Cu986   2.072       .  S
C981        C982   1.386       .  A
C981        H984   1.081       .  S
C982        C983   1.386       .  A
C982       C2165   1.483       .  S
C983        H985   1.082       .  S
Cu986       N989   2.072       .  S
Cu987       N997   2.074   1_655  S
Cu988       N990   2.078   1_455  S
Cu988       N996   2.078       .  S
N989        N990   1.323       .  A
N989        C993   1.344       .  A
N990        C991   1.346   1_655  A
C991        C992   1.384   1_455  A
C991        H994   1.082       .  S
C992        C993   1.382       .  A
C992       C1016   1.471       .  S
C993        H995   1.082       .  S
N996        N997   1.322       .  A
N996       C1000   1.346       .  A
N997        C998   1.344       .  A
C998        C999   1.385       .  A
C998       H1001   1.082       .  S
C999       C1000   1.386       .  A
C999       C1625   1.483       .  S
C1000      H1002   1.081       .  S
N1003      N1004   1.321       .  A
N1003      C1007   1.344       .  A
N1003     Cu1011   2.072       .  S
N1004      C1005   1.346       .  A
N1004     Cu1010   2.076       .  S
C1005      C1006   1.387       .  A
C1005      H1008   1.082       .  S
C1006      C1007   1.386       .  A
C1006      C2235   1.485       .  S
C1007      H1009   1.081       .  S
Cu1010     N1013   2.077       .  S
Cu1011     N1021   2.072   1_655  S
Cu1012     N1014   2.073   1_455  S
Cu1012     N1020   2.073       .  S
N1013      N1014   1.323       .  A
N1013      C1017   1.345       .  A
N1014      C1015   1.345   1_655  A
C1015      C1016   1.383   1_455  A
C1015      H1018   1.082       .  S
C1016      C1017   1.383       .  A
C1017      H1019   1.082       .  S
N1020      N1021   1.322       .  A
N1020      C1024   1.345       .  A
N1021      C1022   1.344       .  A
C1022      C1023   1.383       .  A
C1022      H1025   1.082       .  S
C1023      C1024   1.384       .  A
C1023      C1872   1.477       .  S
C1024      H1026   1.082       .  S
N1027      N1028   1.319       .  A
N1027      C1031   1.345       .  A
N1027     Cu1035   2.084       .  S
N1028      C1029   1.345       .  A
N1028     Cu1034   2.073       .  S
C1029      C1030   1.390       .  A
C1029      H1032   1.078       .  S
C1030      C1031   1.393       .  A
C1030      C1615   1.497       .  S
C1031      H1033   1.081       .  S
Cu1034     N1037   2.073       .  S
Cu1035     N1045   2.085       .  S
Cu1036     N1038   2.077       .  S
Cu1036     N1044   2.078       .  S
N1037      N1038   1.322       .  A
N1037      C1041   1.343       .  A
N1038      C1039   1.348       .  A
C1039      C1040   1.385       .  A
C1039      H1042   1.082       .  S
C1040      C1041   1.383       .  A
C1040      C1064   1.473       .  S
C1041      H1043   1.082       .  S
N1044      N1045   1.322       .  A
N1044      C1048   1.344       .  A
N1045      C1046   1.346       .  A
C1046      C1047   1.389       .  A
C1046      H1049   1.080       .  S
C1047      C1048   1.387       .  A
C1047      C2215   1.489       .  S
C1048      H1050   1.082       .  S
N1051      N1052   1.320       .  A
N1051      C1055   1.345       .  A
N1051     Cu1059   2.079       .  S
N1052      C1053   1.344       .  A
N1052     Cu1058   2.062       .  S
C1053      C1054   1.384       .  A
C1053      H1056   1.081       .  S
C1054      C1055   1.388       .  A
C1054      C1602   1.482       .  S
C1055      H1057   1.082       .  S
Cu1058     N1061   2.063       .  S
Cu1059     N1069   2.080       .  S
Cu1060     N1062   2.089       .  S
Cu1060     N1068   2.089       .  S
N1061      N1062   1.322       .  A
N1061      C1065   1.341       .  A
N1062      C1063   1.350       .  A
C1063      C1064   1.387       .  A
C1063      H1066   1.082       .  S
C1064      C1065   1.380       .  A
C1065      H1067   1.082       .  S
N1068      N1069   1.322       .  A
N1068      C1072   1.346       .  A
N1069      C1070   1.345       .  A
C1070      C1071   1.389       .  A
C1070      H1073   1.079       .  S
C1071      C1072   1.390       .  A
C1071      C1725   1.494       .  S
C1072      H1074   1.082       .  S
C1075      C1076   1.402       .  A
C1075      C1080   1.404       .  A
C1075      C1592   1.478       .  S
C1076      C1077   1.403       .  A
C1076      H1081   1.084       .  S
C1077      C1078   1.404       .  A
C1077      C2105   1.481       .  S
C1078      C1079   1.403       .  A
C1078      H1082   1.084       .  S
C1079      C1080   1.405       .  A
C1079      C1612   1.477       .  S
C1080      H1083   1.084       .  S
N1084      N1085   1.321       .  A
N1084      C1088   1.344       .  A
N1084     Cu1092   2.073       .  S
N1085      C1086   1.347       .  A
N1085     Cu1091   2.083       .  S
C1086      C1087   1.389       .  A
C1086      H1089   1.082       .  S
C1087      C1088   1.387       .  A
C1087      C1595   1.489       .  S
C1088      H1090   1.080       .  S
Cu1091     N1094   2.083       .  S
Cu1092     N1102   2.073       .  S
Cu1093     N1095   2.074       .  S
Cu1093     N1101   2.073       .  S
N1094      N1095   1.323       .  A
N1094      C1098   1.346       .  A
N1095      C1096   1.345       .  A
C1096      C1097   1.382       .  A
C1096      H1099   1.082       .  S
C1097      C1098   1.385       .  A
C1097      C1121   1.474       .  S
C1098      H1100   1.082       .  S
N1101      N1102   1.321       .  A
N1101      C1105   1.345       .  A
N1102      C1103   1.344       .  A
C1103      C1104   1.385       .  A
C1103      H1106   1.082       .  S
C1104      C1105   1.386       .  A
C1104      C2355   1.481       .  S
C1105      H1107   1.081       .  S
N1108      N1109   1.321       .  A
N1108      C1112   1.344       .  A
N1108     Cu1116   2.070       .  S
N1109      C1110   1.345       .  A
N1109     Cu1115   2.076       .  S
C1110      C1111   1.388       .  A
C1110      H1113   1.082       .  S
C1111      C1112   1.386       .  A
C1111      C1582   1.485       .  S
C1112      H1114   1.081       .  S
Cu1115     N1118   2.076       .  S
Cu1116     N1126   2.070       .  S
Cu1117     N1119   2.083       .  S
Cu1117     N1125   2.082       .  S
N1118      N1119   1.323       .  A
N1118      C1122   1.345       .  A
N1119      C1120   1.346       .  A
C1120      C1121   1.384       .  A
C1120      H1123   1.082       .  S
C1121      C1122   1.383       .  A
C1122      H1124   1.082       .  S
N1125      N1126   1.322       .  A
N1125      C1129   1.347       .  A
N1126      C1127   1.343       .  A
C1127      C1128   1.384       .  A
C1127      H1130   1.082       .  S
C1128      C1129   1.387       .  A
C1128      C1572   1.481       .  S
C1129      H1131   1.082       .  S
C1132      C1133   1.404       .  A
C1132      C1137   1.402       .  A
C1132      C1565   1.478       .  S
C1133      C1134   1.406       .  A
C1133      H1138   1.083       .  S
C1134      C1135   1.406       .  A
C1134      C1622   1.487       .  S
C1135      C1136   1.405       .  A
C1135      H1139   1.084       .  S
C1136      C1137   1.404       .  A
C1136      C1575   1.484       .  S
C1137      H1140   1.084       .  S
N1141      N1142   1.321       .  A
N1141      C1145   1.345       .  A
N1141     Cu1149   2.071       .  S
N1142      C1143   1.343       .  A
N1142     Cu1148   2.073       .  S
C1143      C1144   1.387       .  A
C1143      H1146   1.082       .  S
C1144      C1145   1.387       .  A
C1144      C1562   1.486       .  S
C1145      H1147   1.080       .  S
Cu1148     N1151   2.073   1_565  S
Cu1149     N1159   2.071       .  S
Cu1150     N1152   2.074       .  S
Cu1150     N1158   2.075       .  S
N1151      N1152   1.321       .  A
N1151      C1155   1.344       .  A
N1152      C1153   1.346       .  A
C1153      C1154   1.386       .  A
C1153      H1156   1.082       .  S
C1154      C1155   1.385       .  A
C1154      C1555   1.481       .  S
C1155      H1157   1.082       .  S
N1158      N1159   1.323   1_545  A
N1158      C1162   1.343       .  A
N1159      C1160   1.346       .  A
C1160      C1161   1.382       .  A
C1160      H1163   1.082       .  S
C1161      C1162   1.383   1_565  A
C1161      C1178   1.470       .  S
C1162      H1164   1.082       .  S
N1165      N1166   1.321       .  A
N1165      C1169   1.346       .  A
N1165     Cu1173   2.079   1_545  S
N1166      C1167   1.342       .  A
N1166     Cu1172   2.055       .  S
C1167      C1168   1.381       .  A
C1167      H1170   1.082       .  S
C1168      C1169   1.387       .  A
C1168      C1535   1.476       .  S
C1169      H1171   1.082       .  S
Cu1172     N1175   2.055       .  S
Cu1173     N1183   2.081       .  S
Cu1174     N1176   2.083       .  S
Cu1174     N1182   2.084       .  S
N1175      N1176   1.321   1_545  A
N1175      C1179   1.341       .  A
N1176      C1177   1.348       .  A
C1177      C1178   1.386       .  A
C1177      H1180   1.082       .  S
C1178      C1179   1.379   1_565  A
C1179      H1181   1.082       .  S
N1182      N1183   1.323       .  A
N1182      C1186   1.346       .  A
N1183      C1184   1.345       .  A
C1184      C1185   1.385       .  A
C1184      H1187   1.082       .  S
C1185      C1186   1.386       .  A
C1185      C1545   1.485       .  S
C1186      H1188   1.081       .  S
C1189      C1190   1.400       .  A
C1189      C1194   1.401       .  A
C1189      C1522   1.474       .  S
C1190      C1191   1.403       .  A
C1190      H1195   1.083       .  S
C1191      C1192   1.407       .  A
C1191      C1925   1.486       .  S
C1192      C1193   1.405       .  A
C1192      H1196   1.084       .  S
C1193      C1194   1.404       .  A
C1193      C1552   1.485       .  S
C1194      H1197   1.084       .  S
N1198      N1199   1.322       .  A
N1198      C1202   1.343       .  A
N1198     Cu1206   2.071       .  S
N1199      C1200   1.346       .  A
N1199     Cu1205   2.075       .  S
C1200      C1201   1.384       .  A
C1200      H1203   1.082       .  S
C1201      C1202   1.383       .  A
C1201      C1512   1.477       .  S
C1202      H1204   1.082       .  S
Cu1205     N1208   2.075       .  S
Cu1206     N1216   2.070   1_655  S
Cu1207     N1209   2.069   1_455  S
Cu1207     N1215   2.068       .  S
N1208      N1209   1.323       .  A
N1208      C1212   1.345       .  A
N1209      C1210   1.344   1_655  A
C1210      C1211   1.381   1_455  A
C1210      H1213   1.082       .  S
C1211      C1212   1.383       .  A
C1211      C1235   1.469       .  S
C1212      H1214   1.082       .  S
N1215      N1216   1.320       .  A
N1215      C1219   1.344       .  A
N1216      C1217   1.343       .  A
C1217      C1218   1.388       .  A
C1217      H1220   1.082       .  S
C1218      C1219   1.388       .  A
C1218      C1525   1.487       .  S
C1219      H1221   1.080       .  S
N1222      N1223   1.320       .  A
N1222      C1226   1.344       .  A
N1222     Cu1230   2.072       .  S
N1223      C1224   1.342       .  A
N1223     Cu1229   2.067       .  S
C1224      C1225   1.387       .  A
C1224      H1227   1.082       .  S
C1225      C1226   1.389       .  A
C1225      C1502   1.488       .  S
C1226      H1228   1.079       .  S
Cu1229     N1232   2.067       .  S
Cu1230     N1240   2.073   1_655  S
Cu1231     N1233   2.073   1_455  S
Cu1231     N1239   2.073       .  S
N1232      N1233   1.322       .  A
N1232      C1236   1.344       .  A
N1233      C1234   1.345   1_655  A
C1234      C1235   1.383   1_455  A
C1234      H1237   1.082       .  S
C1235      C1236   1.382       .  A
C1236      H1238   1.082       .  S
N1239      N1240   1.322       .  A
N1239      C1243   1.345       .  A
N1240      C1241   1.345       .  A
C1241      C1242   1.383       .  A
C1241      H1244   1.082       .  S
C1242      C1243   1.384       .  A
C1242      C1492   1.477       .  S
C1243      H1245   1.082       .  S
C1246      C1247   1.404       .  A
C1246      C1251   1.406       .  A
C1246      C1515   1.488       .  S
C1247      C1248   1.401       .  A
C1247      H1252   1.083       .  S
C1248      C1249   1.403       .  A
C1248      C1635   1.475       .  S
C1249      C1250   1.405       .  A
C1249      H1253   1.083       .  S
C1250      C1251   1.405       .  A
C1250      C1482   1.488       .  S
C1251      H1254   1.084       .  S
N1255      N1256   1.322       .  A
N1255      C1259   1.344       .  A
N1255     Cu1263   2.077       .  S
N1256      C1257   1.345       .  A
N1256     Cu1262   2.067       .  S
C1257      C1258   1.383       .  A
C1257      H1260   1.082       .  S
C1258      C1259   1.384       .  A
C1258      C1472   1.476       .  S
C1259      H1261   1.082       .  S
Cu1262     N1265   2.068       .  S
Cu1263     N1273   2.077       .  S
Cu1264     N1266   2.065       .  S
Cu1264     N1272   2.064       .  S
N1265      N1266   1.322       .  A
N1265      C1269   1.344       .  A
N1266      C1267   1.343       .  A
C1267      C1268   1.381       .  A
C1267      H1270   1.082       .  S
C1268      C1269   1.382       .  A
C1268      C1292   1.466       .  S
C1269      H1271   1.082       .  S
N1272      N1273   1.321       .  A
N1272      C1276   1.344       .  A
N1273      C1274   1.344       .  A
C1274      C1275   1.388       .  A
C1274      H1277   1.082       .  S
C1275      C1276   1.386       .  A
C1275      C2225   1.485       .  S
C1276      H1278   1.080       .  S
N1279      N1280   1.320       .  A
N1279      C1283   1.342       .  A
N1279     Cu1287   2.072       .  S
N1280      C1281   1.344       .  A
N1280     Cu1286   2.066       .  S
C1281      C1282   1.388       .  A
C1281      H1284   1.080       .  S
C1282      C1283   1.389       .  A
C1282      C1462   1.488       .  S
C1283      H1285   1.081       .  S
Cu1286     N1289   2.067       .  S
Cu1287     N1297   2.071       .  S
Cu1288     N1290   2.068       .  S
Cu1288     N1296   2.067       .  S
N1289      N1290   1.322       .  A
N1289      C1293   1.344       .  A
N1290      C1291   1.344       .  A
C1291      C1292   1.381       .  A
C1291      H1294   1.082       .  S
C1292      C1293   1.381       .  A
C1293      H1295   1.082       .  S
N1296      N1297   1.320       .  A
N1296      C1300   1.343       .  A
N1297      C1298   1.344       .  A
C1298      C1299   1.387       .  A
C1298      H1301   1.082       .  S
C1299      C1300   1.386       .  A
C1299      C1645   1.485       .  S
C1300      H1302   1.080       .  S
C1303      C1304   1.404       .  A
C1303      C1308   1.401       .  A
C1303      C2055   1.475       .  S
C1304      C1305   1.409       .  A
C1304      H1309   1.084       .  S
C1305      C1306   1.406       .  A
C1305      C1475   1.492       .  S
C1306      C1307   1.403       .  A
C1306      H1310   1.083       .  S
C1307      C1308   1.399       .  A
C1307      C1452   1.474       .  S
C1308      H1311   1.084       .  S
N1312      N1313   1.320       .  A
N1312      C1316   1.343       .  A
N1312     Cu1320   2.076       .  S
N1313      C1314   1.344       .  A
N1313     Cu1319   2.065       .  S
C1314      C1315   1.386       .  A
C1314      H1317   1.080       .  S
C1315      C1316   1.389       .  A
C1315      C1455   1.487       .  S
C1316      H1318   1.082       .  S
Cu1319     N1322   2.065       .  S
Cu1320     N1330   2.075       .  S
Cu1321     N1323   2.062       .  S
Cu1321     N1329   2.062       .  S
N1322      N1323   1.321       .  A
N1322      C1326   1.344       .  A
N1323      C1324   1.343       .  A
C1324      C1325   1.381       .  A
C1324      H1327   1.082       .  S
C1325      C1326   1.381       .  A
C1325      C1349   1.465       .  S
C1326      H1328   1.082       .  S
N1329      N1330   1.320       .  A
N1329      C1333   1.343       .  A
N1330      C1331   1.344       .  A
C1331      C1332   1.389       .  A
C1331      H1334   1.082       .  S
C1332      C1333   1.385       .  A
C1332      C2295   1.484       .  S
C1333      H1335   1.080       .  S
N1336      N1337   1.321       .  A
N1336      C1340   1.343       .  A
N1336     Cu1344   2.076       .  S
N1337      C1338   1.344       .  A
N1337     Cu1343   2.065       .  S
C1338      C1339   1.386       .  A
C1338      H1341   1.080       .  S
C1339      C1340   1.388       .  A
C1339      C1442   1.485       .  S
C1340      H1342   1.082       .  S
Cu1343     N1346   2.065       .  S
Cu1344     N1354   2.076       .  S
Cu1345     N1347   2.062       .  S
Cu1345     N1353   2.062       .  S
N1346      N1347   1.321       .  A
N1346      C1350   1.344       .  A
N1347      C1348   1.343       .  A
C1348      C1349   1.381       .  A
C1348      H1351   1.082       .  S
C1349      C1350   1.381       .  A
C1350      H1352   1.082       .  S
N1353      N1354   1.321       .  A
N1353      C1357   1.343       .  A
N1354      C1355   1.344       .  A
C1355      C1356   1.386       .  A
C1355      H1358   1.082       .  S
C1356      C1357   1.383       .  A
C1356      C1485   1.479       .  S
C1357      H1359   1.081       .  S
C1360      C1361   1.409       .  A
C1360      C1365   1.405       .  A
C1360      C1775   1.487       .  S
C1361      C1362   1.408       .  A
C1361      H1366   1.084       .  S
C1362      C1363   1.403       .  A
C1362      C1965   1.489       .  S
C1363      C1364   1.400       .  A
C1363      H1367   1.084       .  S
C1364      C1365   1.399       .  A
C1364      C1465   1.472       .  S
C1365      H1368   1.084       .  S
C1369      C1370   1.404       .  A
C1369      C1374   1.408       .  A
C1369      C1995   1.484       .  S
C1370      C1371   1.401       .  A
C1370      H1375   1.083       .  S
C1371      C1372   1.400       .  A
C1371      C1695   1.481       .  S
C1372      C1373   1.401       .  A
C1372      H1376   1.083       .  S
C1373      C1374   1.406       .  A
C1373      C1605   1.486       .  S
C1374      H1377   1.084       .  S
C1378      C1379   1.405       .  A
C1378      C1383   1.406       .  A
C1378      C1735   1.483       .  S
C1379      C1380   1.404       .  A
C1379      H1384   1.084       .  S
C1380      C1381   1.402       .  A
C1380      C1985   1.482       .  S
C1381      C1382   1.400       .  A
C1381      H1385   1.084       .  S
C1382      C1383   1.404       .  A
C1382      C1445   1.477       .  S
C1383      H1386   1.084       .  S
C1387      C1388   1.405       .  A
C1387      C1392   1.404       .  A
C1387      C1585   1.480       .  S
C1388      C1389   1.403       .  A
C1388      H1393   1.084       .  S
C1389      C1390   1.402       .  A
C1389      C2012   1.480       .  S
C1390      C1391   1.404       .  A
C1390      H1394   1.084       .  S
C1391      C1392   1.404       .  A
C1391      C1655   1.483       .  S
C1392      H1395   1.084       .  S
C1396      C1397   1.406       .  A
C1396      C1401   1.406       .  A
C1396      C1825   1.488       .  S
C1397      C1398   1.404       .  A
C1397      H1402   1.083       .  S
C1398      C1399   1.402       .  A
C1398      C2155   1.478       .  S
C1399      C1400   1.401       .  A
C1399      H1403   1.084       .  S
C1400      C1401   1.403       .  A
C1400      C1495   1.484       .  S
C1401      H1404   1.084       .  S
C1405      C1406   1.406       .  A
C1405      C1410   1.399       .  A
C1405      C2135   1.476       .  S
C1406      C1407   1.407       .  A
C1406      H1411   1.082       .  S
C1407      C1408   1.407       .  A
C1407      C1805   1.492       .  S
C1408      C1409   1.404       .  A
C1408      H1412   1.084       .  S
C1409      C1410   1.400       .  A
C1409      C1532   1.486       .  S
C1410      H1413   1.083       .  S
C1414      C1415   1.402       .  A
C1414      C1419   1.398       .  A
C1414      C1665   1.472       .  S
C1415      C1416   1.405       .  A
C1415      H1420   1.083       .  S
C1416      C1417   1.407       .  A
C1416      C2195   1.487       .  S
C1417      C1418   1.403       .  A
C1417      H1421   1.084       .  S
C1418      C1419   1.401       .  A
C1418      C1745   1.477       .  S
C1419      H1422   1.084       .  S
C1423      C1424   1.398       .  A
C1423      C1428   1.398       .  A
C1423      C1505   1.470       .  S
C1424      C1425   1.404       .  A
C1424      H1429   1.084       .  S
C1425      C1426   1.405       .  A
C1425      C2262   1.483       .  S
C1426      C1427   1.403       .  A
C1426      H1430   1.083       .  S
C1427      C1428   1.402       .  A
C1427      C1785   1.476       .  S
C1428      H1431   1.084       .  S
C1432      C1433   1.406       .  A
C1432      C1437   1.407       .  A
C1432      C1702   1.491       .  S
C1433      C1434   1.404       .  A
C1433      H1438   1.083       .  S
C1434      C1435   1.406       .  A
C1434      C2332   1.485       .  S
C1435      C1436   1.407       .  A
C1435      H1439   1.083       .  S
C1436      C1437   1.406       .  A
C1436      C1542   1.490       .  S
C1437      H1440   1.084       .  S
C1441      C1442   1.405       .  A
C1441      C1446   1.396       .  A
C1441      H1448   1.083       .  S
C1442      C1443   1.416       .  A
C1443      C1444   1.400       .  A
C1443     Br1450   1.920       .  S
C1444      C1445   1.402       .  A
C1444      H1449   1.084       .  S
C1445      C1446   1.406       .  A
C1446     Br1447   1.915       .  S
C1451      C1452   1.400       .  A
C1451      C1456   1.402       .  A
C1451      H1458   1.084       .  S
C1452      C1453   1.405       .  A
C1453      C1454   1.394       .  A
C1453     Br1460   1.917       .  S
C1454      C1455   1.405       .  A
C1454      H1459   1.082       .  S
C1455      C1456   1.418       .  A
C1456     Br1457   1.920       .  S
C1461      C1462   1.407       .  A
C1461      C1466   1.394       .  A
C1461      H1468   1.082       .  S
C1462      C1463   1.419       .  A
C1463      C1464   1.402       .  A
C1463     Br1470   1.920       .  S
C1464      C1465   1.400       .  A
C1464      H1469   1.084       .  S
C1465      C1466   1.403       .  A
C1466     Br1467   1.917       .  S
C1471      C1472   1.399       .  A
C1471      C1476   1.396       .  A
C1471      H1478   1.084       .  S
C1472      C1473   1.408       .  A
C1473      C1474   1.401       .  A
C1473     Br1480   1.919       .  S
C1474      C1475   1.408       .  A
C1474      H1479   1.083       .  S
C1475      C1476   1.417       .  A
C1476     Br1477   1.917       .  S
C1481      C1482   1.407       .  A
C1481      C1486   1.399       .  A
C1481      H1488   1.083       .  S
C1482      C1483   1.414       .  A
C1483      C1484   1.397       .  A
C1483     Br1490   1.917       .  S
C1484      C1485   1.402       .  A
C1484      H1489   1.083       .  S
C1485      C1486   1.410       .  A
C1486     Br1487   1.920       .  S
C1491      C1492   1.403       .  A
C1491      C1496   1.399       .  A
C1491      H1498   1.084       .  S
C1492      C1493   1.409       .  A
C1493      C1494   1.398       .  A
C1493     Br1500   1.919       .  S
C1494      C1495   1.405       .  A
C1494      H1499   1.084       .  S
C1495      C1496   1.413       .  A
C1496     Br1497   1.921       .  S
C1501      C1502   1.410       .  A
C1501      C1506   1.398       .  A
C1501      H1508   1.082       .  S
C1502      C1503   1.418       .  A
C1503      C1504   1.398       .  A
C1503     Br1510   1.919       .  S
C1504      C1505   1.398       .  A
C1504      H1509   1.084       .  S
C1505      C1506   1.402       .  A
C1506     Br1507   1.919       .  S
C1511      C1512   1.403       .  A
C1511      C1516   1.401       .  A
C1511      H1518   1.083       .  S
C1512      C1513   1.409       .  A
C1513      C1514   1.396       .  A
C1513     Br1520   1.920       .  S
C1514      C1515   1.406       .  A
C1514      H1519   1.083       .  S
C1515      C1516   1.414       .  A
C1516     Br1517   1.921       .  S
C1521      C1522   1.400       .  A
C1521      C1526   1.399       .  A
C1521      H1528   1.084       .  S
C1522      C1523   1.405       .  A
C1523      C1524   1.397       .  A
C1523     Br1530   1.920       .  S
C1524      C1525   1.408       .  A
C1524      H1529   1.083       .  S
C1525      C1526   1.418       .  A
C1526     Br1527   1.920       .  S
C1531      C1532   1.406       .  A
C1531      C1536   1.397       .  A
C1531      H1538   1.084       .  S
C1532      C1533   1.416       .  A
C1533      C1534   1.398       .  A
C1533     Br1540   1.923       .  S
C1534      C1535   1.401       .  A
C1534      H1539   1.084       .  S
C1535      C1536   1.410       .  A
C1536     Br1537   1.920       .  S
C1541      C1542   1.406       .  A
C1541      C1546   1.401       .  A
C1541      H1548   1.084       .  S
C1542      C1543   1.412       .  A
C1543      C1544   1.400       .  A
C1543     Br1550   1.915       .  S
C1544      C1545   1.404       .  A
C1544      H1549   1.083       .  S
C1545      C1546   1.412       .  A
C1546     Br1547   1.919       .  S
C1551      C1552   1.406       .  A
C1551      C1556   1.401       .  A
C1551      H1558   1.083       .  S
C1552      C1553   1.413       .  A
C1553      C1554   1.397       .  A
C1553     Br1560   1.922       .  S
C1554      C1555   1.403       .  A
C1554      H1559   1.083       .  S
C1555      C1556   1.411       .  A
C1556     Br1557   1.919       .  S
C1561      C1562   1.406       .  A
C1561      C1566   1.396       .  A
C1561      H1568   1.083       .  S
C1562      C1563   1.416       .  A
C1563      C1564   1.401       .  A
C1563     Br1570   1.920       .  S
C1564      C1565   1.401       .  A
C1564      H1569   1.084       .  S
C1565      C1566   1.406       .  A
C1566     Br1567   1.916       .  S
C1571      C1572   1.404       .  A
C1571      C1576   1.401       .  A
C1571      H1578   1.083       .  S
C1572      C1573   1.412       .  A
C1573      C1574   1.399       .  A
C1573     Br1580   1.920       .  S
C1574      C1575   1.404       .  A
C1574      H1579   1.084       .  S
C1575      C1576   1.412       .  A
C1576     Br1577   1.920       .  S
C1581      C1582   1.406       .  A
C1581      C1586   1.400       .  A
C1581      H1588   1.083       .  S
C1582      C1583   1.415       .  A
C1583      C1584   1.399       .  A
C1583     Br1590   1.920       .  S
C1584      C1585   1.402       .  A
C1584      H1589   1.084       .  S
C1585      C1586   1.408       .  A
C1586     Br1587   1.918       .  S
C1591      C1592   1.400       .  A
C1591      C1596   1.399       .  A
C1591      H1598   1.084       .  S
C1592      C1593   1.406       .  A
C1593      C1594   1.401       .  A
C1593     Br1600   1.918       .  S
C1594      C1595   1.408       .  A
C1594      H1599   1.083       .  S
C1595      C1596   1.417       .  A
C1596     Br1597   1.920       .  S
C1601      C1602   1.402       .  A
C1601      C1606   1.396       .  A
C1601      H1608   1.083       .  S
C1602      C1603   1.413       .  A
C1603      C1604   1.401       .  A
C1603     Br1610   1.920       .  S
C1604      C1605   1.404       .  A
C1604      H1609   1.083       .  S
C1605      C1606   1.415       .  A
C1606     Br1607   1.923       .  S
C1611      C1612   1.399       .  A
C1611      C1616   1.403       .  A
C1611      H1618   1.084       .  S
C1612      C1613   1.404       .  A
C1613      C1614   1.399       .  A
C1613     Br1620   1.919       .  S
C1614      C1615   1.410       .  A
C1614      H1619   1.082       .  S
C1615      C1616   1.422       .  A
C1616     Br1617   1.919       .  S
C1621      C1622   1.406       .  A
C1621      C1626   1.400       .  A
C1621      H1628   1.084       .  S
C1622      C1623   1.412       .  A
C1623      C1624   1.398       .  A
C1623     Br1630   1.917       .  S
C1624      C1625   1.404       .  A
C1624      H1629   1.083       .  S
C1625      C1626   1.412       .  A
C1626     Br1627   1.919       .  S
C1631      C1632   1.407       .  A
C1631      C1636   1.397       .  A
C1631      H1638   1.083       .  S
C1632      C1633   1.417       .  A
C1633      C1634   1.401       .  A
C1633     Br1640   1.919       .  S
C1634      C1635   1.400       .  A
C1634      H1639   1.084       .  S
C1635      C1636   1.405       .  A
C1636     Br1637   1.916       .  S
C1641      C1642   1.402       .  A
C1641      C1646   1.398       .  A
C1641      H1648   1.084       .  S
C1642      C1643   1.409       .  A
C1643      C1644   1.397       .  A
C1643     Br1650   1.921       .  S
C1644      C1645   1.406       .  A
C1644      H1649   1.083       .  S
C1645      C1646   1.415       .  A
C1646     Br1647   1.920       .  S
C1651      C1652   1.406       .  A
C1651      C1656   1.400       .  A
C1651      H1658   1.083       .  S
C1652      C1653   1.414       .  A
C1653      C1654   1.398       .  A
C1653     Br1660   1.920       .  S
C1654      C1655   1.403       .  A
C1654      H1659   1.084       .  S
C1655      C1656   1.409       .  A
C1656     Br1657   1.918       .  S
C1661      C1662   1.405       .  A
C1661      C1666   1.393       .  A
C1661      H1668   1.082       .  S
C1662      C1663   1.418       .  A
C1663      C1664   1.401       .  A
C1663     Br1670   1.920       .  S
C1664      C1665   1.399       .  A
C1664      H1669   1.084       .  S
C1665      C1666   1.405       .  A
C1666     Br1667   1.916       .  S
C1671      C1672   1.406       .  A
C1671      C1676   1.400       .  A
C1671      H1678   1.083       .  S
C1672      C1673   1.413       .  A
C1673      C1674   1.396       .  A
C1673     Br1680   1.920       .  S
C1674      C1675   1.401       .  A
C1674      H1679   1.084       .  S
C1675      C1676   1.408       .  A
C1676     Br1677   1.919       .  S
C1681      C1682   1.405       .  A
C1681      C1686   1.396       .  A
C1681      H1688   1.083       .  S
C1682      C1683   1.414       .  A
C1683      C1684   1.398       .  A
C1683     Br1690   1.922       .  S
C1684      C1685   1.402       .  A
C1684      H1689   1.084       .  S
C1685      C1686   1.407       .  A
C1686     Br1687   1.920       .  S
C1691      C1692   1.401       .  A
C1691      C1696   1.396       .  A
C1691      H1698   1.083       .  S
C1692      C1693   1.413       .  A
C1693      C1694   1.398       .  A
C1693     Br1700   1.921       .  S
C1694      C1695   1.403       .  A
C1694      H1699   1.084       .  S
C1695      C1696   1.413       .  A
C1696     Br1697   1.922       .  S
C1701      C1702   1.407       .  A
C1701      C1706   1.401       .  A
C1701      H1708   1.083       .  S
C1702      C1703   1.414       .  A
C1703      C1704   1.401       .  A
C1703     Br1710   1.921       .  S
C1704      C1705   1.404       .  A
C1704      H1709   1.083       .  S
C1705      C1706   1.411       .  A
C1706     Br1707   1.920       .  S
C1711      C1712   1.405       .  A
C1711      C1716   1.396       .  A
C1711      H1718   1.083       .  S
C1712      C1713   1.413       .  A
C1713      C1714   1.401       .  A
C1713     Br1720   1.919       .  S
C1714      C1715   1.403       .  A
C1714      H1719   1.084       .  S
C1715      C1716   1.409       .  A
C1716     Br1717   1.922       .  S
C1721      C1722   1.400       .  A
C1721      C1726   1.402       .  A
C1721      H1728   1.084       .  S
C1722      C1723   1.406       .  A
C1723      C1724   1.400       .  A
C1723     Br1730   1.919       .  S
C1724      C1725   1.409       .  A
C1724      H1729   1.082       .  S
C1725      C1726   1.419       .  A
C1726     Br1727   1.920       .  S
C1731      C1732   1.404       .  A
C1731      C1736   1.396       .  A
C1731      H1738   1.083       .  S
C1732      C1733   1.415       .  A
C1733      C1734   1.401       .  A
C1733     Br1740   1.919       .  S
C1734      C1735   1.404       .  A
C1734      H1739   1.084       .  S
C1735      C1736   1.409       .  A
C1736     Br1737   1.915       .  S
C1741      C1742   1.408       .  A
C1741      C1746   1.400       .  A
C1741      H1748   1.083       .  S
C1742      C1743   1.416       .  A
C1743      C1744   1.397       .  A
C1743     Br1750   1.920       .  S
C1744      C1745   1.400       .  A
C1744      H1749   1.084       .  S
C1745      C1746   1.407       .  A
C1746     Br1747   1.919       .  S
C1751      C1752   1.407       .  A
C1751      C1756   1.401       .  A
C1751      H1758   1.083       .  S
C1752      C1753   1.414       .  A
C1753      C1754   1.401       .  A
C1753     Br1760   1.920       .  S
C1754      C1755   1.404       .  A
C1754      H1759   1.084       .  S
C1755      C1756   1.410       .  A
C1756     Br1757   1.919       .  S
C1761      C1762   1.404       .  A
C1761      C1766   1.398       .  A
C1761      H1768   1.084       .  S
C1762      C1763   1.411       .  A
C1763      C1764   1.402       .  A
C1763     Br1770   1.919       .  S
C1764      C1765   1.406       .  A
C1764      H1769   1.083       .  S
C1765      C1766   1.413       .  A
C1766     Br1767   1.920       .  S
C1771      C1772   1.404       .  A
C1771      C1776   1.399       .  A
C1771      H1778   1.083       .  S
C1772      C1773   1.411       .  A
C1773      C1774   1.400       .  A
C1773     Br1780   1.919       .  S
C1774      C1775   1.405       .  A
C1774      H1779   1.083       .  S
C1775      C1776   1.413       .  A
C1776     Br1777   1.921       .  S
C1781      C1782   1.405       .  A
C1781      C1786   1.395       .  A
C1781      H1788   1.083       .  S
C1782      C1783   1.418       .  A
C1783      C1784   1.401       .  A
C1783     Br1790   1.920       .  S
C1784      C1785   1.400       .  A
C1784      H1789   1.084       .  S
C1785      C1786   1.407       .  A
C1786     Br1787   1.921       .  S
C1791      C1792   1.403       .  A
C1791      C1796   1.399       .  A
C1791      H1798   1.083       .  S
C1792      C1793   1.412       .  A
C1793      C1794   1.401       .  A
C1793     Br1800   1.920       .  S
C1794      C1795   1.405       .  A
C1794      H1799   1.083       .  S
C1795      C1796   1.414       .  A
C1796     Br1797   1.921       .  S
C1801      C1802   1.401       .  A
C1801      C1806   1.398       .  A
C1801      H1808   1.084       .  S
C1802      C1803   1.410       .  A
C1803      C1804   1.399       .  A
C1803     Br1810   1.920       .  S
C1804      C1805   1.408       .  A
C1804      H1809   1.084       .  S
C1805      C1806   1.416       .  A
C1806     Br1807   1.914       .  S
C1811      C1812   1.404       .  A
C1811      C1816   1.398       .  A
C1811      H1818   1.084       .  S
C1812      C1813   1.411       .  A
C1813      C1814   1.401       .  A
C1813     Br1820   1.920       .  S
C1814      C1815   1.405       .  A
C1814      H1819   1.083       .  S
C1815      C1816   1.412       .  A
C1816     Br1817   1.920       .  S
C1821      C1822   1.403       .  A
C1821      C1826   1.399       .  A
C1821      H1828   1.083       .  S
C1822      C1823   1.410       .  A
C1823      C1824   1.398       .  A
C1823     Br1830   1.920       .  S
C1824      C1825   1.406       .  A
C1824      H1829   1.084       .  S
C1825      C1826   1.414       .  A
C1826     Br1827   1.921       .  S
C1831      C1832   1.404       .  A
C1831      C1836   1.401       .  A
C1831      H1838   1.084       .  S
C1832      C1833   1.412       .  A
C1833      C1834   1.397       .  A
C1833     Br1840   1.922       .  S
C1834      C1835   1.404       .  A
C1834      H1839   1.083       .  S
C1835      C1836   1.413       .  A
C1836     Br1837   1.919       .  S
C1841      C1842   1.404       .  A
C1841      C1846   1.400       .  A
C1841      H1848   1.084       .  S
C1842      C1843   1.411       .  A
C1843      C1844   1.402       .  A
C1843     Br1850   1.920       .  S
C1844      C1845   1.406       .  A
C1844      H1849   1.083       .  S
C1845      C1846   1.414       .  A
C1846     Br1847   1.920       .  S
C1851      C1852   1.404       .  A
C1851      C1856   1.402       .  A
C1851      H1858   1.084       .  S
C1852      C1853   1.411       .  A
C1853      C1854   1.401       .  A
C1853     Br1860   1.920       .  S
C1854      C1855   1.406       .  A
C1854      H1859   1.083       .  S
C1855      C1856   1.415       .  A
C1856     Br1857   1.919       .  S
C1861      C1862   1.405       .  A
C1861      C1866   1.401       .  A
C1861      H1868   1.084       .  S
C1862      C1863   1.412       .  A
C1863      C1864   1.400       .  A
C1863     Br1870   1.921       .  S
C1864      C1865   1.405       .  A
C1864      H1869   1.083       .  S
C1865      C1866   1.414       .  A
C1866     Br1867   1.920       .  S
C1871      C1872   1.403       .  A
C1871      C1876   1.399       .  A
C1871      H1878   1.084       .  S
C1872      C1873   1.410       .  A
C1873      C1874   1.398       .  A
C1873     Br1880   1.919       .  S
C1874      C1875   1.405       .  A
C1874      H1879   1.084       .  S
C1875      C1876   1.413       .  A
C1876     Br1877   1.921       .  S
C1881      C1882   1.405       .  A
C1881      C1886   1.395       .  A
C1881      H1888   1.083       .  S
C1882      C1883   1.412       .  A
C1883      C1884   1.399       .  A
C1883     Br1890   1.920       .  S
C1884      C1885   1.404       .  A
C1884      H1889   1.083       .  S
C1885      C1886   1.409       .  A
C1886     Br1887   1.920       .  S
C1891      C1892   1.404       .  A
C1891      C1896   1.398       .  A
C1891      H1898   1.084       .  S
C1892      C1893   1.411       .  A
C1893      C1894   1.399       .  A
C1893     Br1900   1.921       .  S
C1894      C1895   1.405       .  A
C1894      H1899   1.083       .  S
C1895      C1896   1.412       .  A
C1896     Br1897   1.920       .  S
C1901      C1902   1.404       .  A
C1901      C1906   1.402       .  A
C1901      H1908   1.083       .  S
C1902      C1903   1.411       .  A
C1903      C1904   1.399       .  A
C1903     Br1910   1.920       .  S
C1904      C1905   1.406       .  A
C1904      H1909   1.083       .  S
C1905      C1906   1.413       .  A
C1906     Br1907   1.920       .  S
C1911      C1912   1.405       .  A
C1911      C1916   1.397       .  A
C1911      H1918   1.084       .  S
C1912      C1913   1.412       .  A
C1913      C1914   1.399       .  A
C1913     Br1920   1.921       .  S
C1914      C1915   1.404       .  A
C1914      H1919   1.083       .  S
C1915      C1916   1.410       .  A
C1916     Br1917   1.920       .  S
C1921      C1922   1.402       .  A
C1921      C1926   1.398       .  A
C1921      H1928   1.084       .  S
C1922      C1923   1.409       .  A
C1923      C1924   1.397       .  A
C1923     Br1930   1.920       .  S
C1924      C1925   1.406       .  A
C1924      H1929   1.083       .  S
C1925      C1926   1.415       .  A
C1926     Br1927   1.922       .  S
C1931      C1932   1.404       .  A
C1931      C1936   1.401       .  A
C1931      H1938   1.083       .  S
C1932      C1933   1.410       .  A
C1933      C1934   1.395       .  A
C1933     Br1940   1.921       .  S
C1934      C1935   1.405       .  A
C1934      H1939   1.084       .  S
C1935      C1936   1.412       .  A
C1936     Br1937   1.920       .  S
C1941      C1942   1.406       .  A
C1941      C1946   1.399       .  A
C1941      H1948   1.083       .  S
C1942      C1943   1.412       .  A
C1943      C1944   1.396       .  A
C1943     Br1950   1.920       .  S
C1944      C1945   1.403       .  A
C1944      H1949   1.084       .  S
C1945      C1946   1.408       .  A
C1946     Br1947   1.919       .  S
C1951      C1952   1.403       .  A
C1951      C1956   1.396       .  A
C1951      H1958   1.084       .  S
C1952      C1953   1.407       .  A
C1953      C1954   1.398       .  A
C1953     Br1960   1.919       .  S
C1954      C1955   1.406       .  A
C1954      H1959   1.083       .  S
C1955      C1956   1.411       .  A
C1956     Br1957   1.920       .  S
C1961      C1962   1.400       .  A
C1961      C1966   1.395       .  A
C1961      H1968   1.084       .  S
C1962      C1963   1.410       .  A
C1963      C1964   1.402       .  A
C1963     Br1970   1.919       .  S
C1964      C1965   1.407       .  A
C1964      H1969   1.083       .  S
C1965      C1966   1.415       .  A
C1966     Br1967   1.917       .  S
C1971      C1972   1.408       .  A
C1971      C1976   1.399       .  A
C1971      H1978   1.083       .  S
C1972      C1973   1.415       .  A
C1973      C1974   1.398       .  A
C1973     Br1980   1.920       .  S
C1974      C1975   1.400       .  A
C1974      H1979   1.084       .  S
C1975      C1976   1.405       .  A
C1976     Br1977   1.918       .  S
C1981      C1982   1.405       .  A
C1981      C1986   1.397       .  A
C1981      H1988   1.083       .  S
C1982      C1983   1.413       .  A
C1983      C1984   1.399       .  A
C1983     Br1990   1.920       .  S
C1984      C1985   1.404       .  A
C1984      H1989   1.084       .  S
C1985      C1986   1.411       .  A
C1986     Br1987   1.921       .  S
C1991      C1992   1.407       .  A
C1991      C1996   1.400       .  A
C1991      H1998   1.083       .  S
C1992      C1993   1.412       .  A
C1993      C1994   1.397       .  A
C1993     Br2000   1.920       .  S
C1994      C1995   1.404       .  A
C1994      H1999   1.083       .  S
C1995      C1996   1.411       .  A
C1996     Br1997   1.921       .  S
C2001      C2002   1.405       .  A
C2001      C2006   1.399       .  A
C2001      H2008   1.083       .  S
C2002      C2003   1.412       .  A
C2003      C2004   1.399       .  A
C2003     Br2010   1.920       .  S
C2004      C2005   1.405       .  A
C2004      H2009   1.083       .  S
C2005      C2006   1.412       .  A
C2006     Br2007   1.920       .  S
C2011      C2012   1.402       .  A
C2011      C2016   1.401       .  A
C2011      H2018   1.084       .  S
C2012      C2013   1.409       .  A
C2013      C2014   1.398       .  A
C2013     Br2020   1.921       .  S
C2014      C2015   1.406       .  A
C2014      H2019   1.083       .  S
C2015      C2016   1.415       .  A
C2016     Br2017   1.919       .  S
C2021      C2022   1.406       .  A
C2021      C2026   1.402       .  A
C2021      H2028   1.083       .  S
C2022      C2023   1.413       .  A
C2023      C2024   1.400       .  A
C2023     Br2030   1.920       .  S
C2024      C2025   1.405       .  A
C2024      H2029   1.084       .  S
C2025      C2026   1.412       .  A
C2026     Br2027   1.920       .  S
C2031      C2032   1.408       .  A
C2031      C2036   1.402       .  A
C2031      H2038   1.083       .  S
C2032      C2033   1.414       .  A
C2033      C2034   1.397       .  A
C2033     Br2040   1.920       .  S
C2034      C2035   1.402       .  A
C2034      H2039   1.083       .  S
C2035      C2036   1.408       .  A
C2036     Br2037   1.918       .  S
C2041      C2042   1.408       .  A
C2041      C2046   1.401       .  A
C2041      H2048   1.083       .  S
C2042      C2043   1.416       .  A
C2043      C2044   1.403       .  A
C2043     Br2050   1.919       .  S
C2044      C2045   1.404       .  A
C2044      H2049   1.084       .  S
C2045      C2046   1.410       .  A
C2046     Br2047   1.920       .  S
C2051      C2052   1.411       .  A
C2051      C2056   1.400       .  A
C2051      H2058   1.082       .  S
C2052      C2053   1.421       .  A
C2053      C2054   1.400       .  A
C2053     Br2060   1.919       .  S
C2054      C2055   1.398       .  A
C2054      H2059   1.084       .  S
C2055      C2056   1.403       .  A
C2056     Br2057   1.918       .  S
C2061      C2062   1.404       .  A
C2061      C2066   1.398       .  A
C2061      H2068   1.083       .  S
C2062      C2063   1.412       .  A
C2063      C2064   1.399       .  A
C2063     Br2070   1.920       .  S
C2064      C2065   1.405       .  A
C2064      H2069   1.084       .  S
C2065      C2066   1.413       .  A
C2066     Br2067   1.922       .  S
C2071      C2072   1.403       .  A
C2071      C2076   1.396       .  A
C2071      H2078   1.083       .  S
C2072      C2073   1.407       .  A
C2073      C2074   1.400       .  A
C2073     Br2080   1.917       .  S
C2074      C2075   1.406       .  A
C2074      H2079   1.083       .  S
C2075      C2076   1.411       .  A
C2076     Br2077   1.920       .  S
C2081      C2082   1.409       .  A
C2081      C2086   1.397       .  A
C2081      H2088   1.082       .  S
C2082      C2083   1.418       .  A
C2083      C2084   1.397       .  A
C2083     Br2090   1.920       .  S
C2084      C2085   1.397       .  A
C2084      H2089   1.084       .  S
C2085      C2086   1.402       .  A
C2086     Br2087   1.918       .  S
C2091      C2092   1.403       .  A
C2091      C2096   1.396       .  A
C2091      H2098   1.083       .  S
C2092      C2093   1.412       .  A
C2093      C2094   1.399       .  A
C2093     Br2100   1.920       .  S
C2094      C2095   1.405       .  A
C2094      H2099   1.083       .  S
C2095      C2096   1.413       .  A
C2096     Br2097   1.922       .  S
C2101      C2102   1.406       .  A
C2101      C2106   1.398       .  A
C2101      H2108   1.083       .  S
C2102      C2103   1.416       .  A
C2103      C2104   1.400       .  A
C2103     Br2110   1.920       .  S
C2104      C2105   1.402       .  A
C2104      H2109   1.084       .  S
C2105      C2106   1.409       .  A
C2106     Br2107   1.921       .  S
C2111      C2112   1.405       .  A
C2111      C2116   1.400       .  A
C2111      H2118   1.083       .  S
C2112      C2113   1.407       .  A
C2113      C2114   1.395       .  A
C2113     Br2120   1.920       .  S
C2114      C2115   1.407       .  A
C2114      H2119   1.083       .  S
C2115      C2116   1.412       .  A
C2116     Br2117   1.921       .  S
C2121      C2122   1.405       .  A
C2121      C2126   1.400       .  A
C2121      H2128   1.083       .  S
C2122      C2123   1.414       .  A
C2123      C2124   1.403       .  A
C2123     Br2130   1.919       .  S
C2124      C2125   1.405       .  A
C2124      H2129   1.083       .  S
C2125      C2126   1.412       .  A
C2126     Br2127   1.921       .  S
C2131      C2132   1.404       .  A
C2131      C2136   1.393       .  A
C2131      H2138   1.082       .  S
C2132      C2133   1.420       .  A
C2133      C2134   1.403       .  A
C2133     Br2140   1.920       .  S
C2134      C2135   1.401       .  A
C2134      H2139   1.084       .  S
C2135      C2136   1.406       .  A
C2136     Br2137   1.917       .  S
C2141      C2142   1.407       .  A
C2141      C2146   1.398       .  A
C2141      H2148   1.083       .  S
C2142      C2143   1.415       .  A
C2143      C2144   1.398       .  A
C2143     Br2150   1.920       .  S
C2144      C2145   1.402       .  A
C2144      H2149   1.084       .  S
C2145      C2146   1.408       .  A
C2146     Br2147   1.919       .  S
C2151      C2152   1.409       .  A
C2151      C2156   1.402       .  A
C2151      H2158   1.083       .  S
C2152      C2153   1.414       .  A
C2153      C2154   1.395       .  A
C2153     Br2160   1.920       .  S
C2154      C2155   1.401       .  A
C2154      H2159   1.084       .  S
C2155      C2156   1.407       .  A
C2156     Br2157   1.918       .  S
C2161      C2162   1.405       .  A
C2161      C2166   1.399       .  A
C2161      H2168   1.084       .  S
C2162      C2163   1.411       .  A
C2163      C2164   1.399       .  A
C2163     Br2170   1.920       .  S
C2164      C2165   1.405       .  A
C2164      H2169   1.083       .  S
C2165      C2166   1.413       .  A
C2166     Br2167   1.920       .  S
C2171      C2172   1.405       .  A
C2171      C2176   1.398       .  A
C2171      H2178   1.083       .  S
C2172      C2173   1.412       .  A
C2173      C2174   1.402       .  A
C2173     Br2180   1.920       .  S
C2174      C2175   1.404       .  A
C2174      H2179   1.083       .  S
C2175      C2176   1.411       .  A
C2176     Br2177   1.920       .  S
C2181      C2182   1.405       .  A
C2181      C2186   1.400       .  A
C2181      H2188   1.083       .  S
C2182      C2183   1.412       .  A
C2183      C2184   1.398       .  A
C2183     Br2190   1.920       .  S
C2184      C2185   1.404       .  A
C2184      H2189   1.084       .  S
C2185      C2186   1.411       .  A
C2186     Br2187   1.920       .  S
C2191      C2192   1.399       .  A
C2191      C2196   1.395       .  A
C2191      H2198   1.084       .  S
C2192      C2193   1.411       .  A
C2193      C2194   1.400       .  A
C2193     Br2200   1.920       .  S
C2194      C2195   1.406       .  A
C2194      H2199   1.084       .  S
C2195      C2196   1.415       .  A
C2196     Br2197   1.915       .  S
C2201      C2202   1.408       .  A
C2201      C2206   1.401       .  A
C2201      H2208   1.083       .  S
C2202      C2203   1.416       .  A
C2203      C2204   1.395       .  A
C2203     Br2210   1.917       .  S
C2204      C2205   1.400       .  A
C2204      H2209   1.084       .  S
C2205      C2206   1.410       .  A
C2206     Br2207   1.919       .  S
C2211      C2212   1.401       .  A
C2211      C2216   1.401       .  A
C2211      H2218   1.084       .  S
C2212      C2213   1.406       .  A
C2213      C2214   1.399       .  A
C2213     Br2220   1.920       .  S
C2214      C2215   1.408       .  A
C2214      H2219   1.083       .  S
C2215      C2216   1.417       .  A
C2216     Br2217   1.919       .  S
C2221      C2222   1.400       .  A
C2221      C2226   1.402       .  A
C2221      H2228   1.084       .  S
C2222      C2223   1.405       .  A
C2223      C2224   1.395       .  A
C2223     Br2230   1.917       .  S
C2224      C2225   1.405       .  A
C2224      H2229   1.083       .  S
C2225      C2226   1.417       .  A
C2226     Br2227   1.919       .  S
C2231      C2232   1.401       .  A
C2231      C2236   1.398       .  A
C2231      H2238   1.084       .  S
C2232      C2233   1.407       .  A
C2233      C2234   1.401       .  A
C2233     Br2240   1.919       .  S
C2234      C2235   1.407       .  A
C2234      H2239   1.083       .  S
C2235      C2236   1.415       .  A
C2236     Br2237   1.920       .  S
C2241      C2242   1.404       .  A
C2241      C2246   1.400       .  A
C2241      H2248   1.084       .  S
C2242      C2243   1.412       .  A
C2243      C2244   1.399       .  A
C2243     Br2250   1.921       .  S
C2244      C2245   1.405       .  A
C2244      H2249   1.083       .  S
C2245      C2246   1.413       .  A
C2246     Br2247   1.920       .  S
C2251      C2252   1.406       .  A
C2251      C2256   1.398       .  A
C2251      H2258   1.083       .  S
C2252      C2253   1.417       .  A
C2253      C2254   1.401       .  A
C2253     Br2260   1.920       .  S
C2254      C2255   1.401       .  A
C2254      H2259   1.084       .  S
C2255      C2256   1.407       .  A
C2256     Br2257   1.920       .  S
C2261      C2262   1.404       .  A
C2261      C2266   1.397       .  A
C2261      H2268   1.084       .  S
C2262      C2263   1.414       .  A
C2263      C2264   1.398       .  A
C2263     Br2270   1.921       .  S
C2264      C2265   1.402       .  A
C2264      H2269   1.083       .  S
C2265      C2266   1.411       .  A
C2266     Br2267   1.921       .  S
C2271      C2272   1.402       .  A
C2271      C2276   1.397       .  A
C2271      H2278   1.084       .  S
C2272      C2273   1.408       .  A
C2273      C2274   1.398       .  A
C2273     Br2280   1.916       .  S
C2274      C2275   1.405       .  A
C2274      H2279   1.083       .  S
C2275      C2276   1.413       .  A
C2276     Br2277   1.921       .  S
C2281      C2282   1.407       .  A
C2281      C2286   1.397       .  A
C2281      H2288   1.083       .  S
C2282      C2283   1.413       .  A
C2283      C2284   1.399       .  A
C2283     Br2290   1.917       .  S
C2284      C2285   1.402       .  A
C2284      H2289   1.084       .  S
C2285      C2286   1.409       .  A
C2286     Br2287   1.920       .  S
C2291      C2292   1.401       .  A
C2291      C2296   1.399       .  A
C2291      H2298   1.084       .  S
C2292      C2293   1.407       .  A
C2293      C2294   1.396       .  A
C2293     Br2300   1.921       .  S
C2294      C2295   1.406       .  A
C2294      H2299   1.083       .  S
C2295      C2296   1.417       .  A
C2296     Br2297   1.920       .  S
C2301      C2302   1.400       .  A
C2301      C2306   1.397       .  A
C2301      H2308   1.084       .  S
C2302      C2303   1.404       .  A
C2303      C2304   1.400       .  A
C2303     Br2310   1.918       .  S
C2304      C2305   1.410       .  A
C2304      H2309   1.083       .  S
C2305      C2306   1.415       .  A
C2306     Br2307   1.919       .  S
C2311      C2312   1.406       .  A
C2311      C2316   1.397       .  A
C2311      H2318   1.083       .  S
C2312      C2313   1.414       .  A
C2313      C2314   1.400       .  A
C2313     Br2320   1.922       .  S
C2314      C2315   1.404       .  A
C2314      H2319   1.083       .  S
C2315      C2316   1.408       .  A
C2316     Br2317   1.920       .  S
C2321      C2322   1.406       .  A
C2321      C2326   1.397       .  A
C2321      H2328   1.083       .  S
C2322      C2323   1.418       .  A
C2323      C2324   1.399       .  A
C2323     Br2330   1.921       .  S
C2324      C2325   1.399       .  A
C2324      H2329   1.084       .  S
C2325      C2326   1.406       .  A
C2326     Br2327   1.920       .  S
C2331      C2332   1.403       .  A
C2331      C2336   1.403       .  A
C2331      H2338   1.084       .  S
C2332      C2333   1.408       .  A
C2333      C2334   1.398       .  A
C2333     Br2340   1.916       .  S
C2334      C2335   1.406       .  A
C2334      H2339   1.083       .  S
C2335      C2336   1.418       .  A
C2336     Br2337   1.919       .  S
C2341      C2342   1.404       .  A
C2341      C2346   1.397       .  A
C2341      H2348   1.083       .  S
C2342      C2343   1.413       .  A
C2343      C2344   1.399       .  A
C2343     Br2350   1.921       .  S
C2344      C2345   1.403       .  A
C2344      H2349   1.084       .  S
C2345      C2346   1.408       .  A
C2346     Br2347   1.915       .  S
C2351      C2352   1.403       .  A
C2351      C2356   1.400       .  A
C2351      H2358   1.084       .  S
C2352      C2353   1.410       .  A
C2353      C2354   1.398       .  A
C2353     Br2360   1.921       .  S
C2354      C2355   1.404       .  A
C2354      H2359   1.083       .  S
C2355      C2356   1.413       .  A
C2356     Br2357   1.919       .  S
C2361      C2362   1.409       .  A
C2361      C2366   1.398       .  A
C2361      H2368   1.083       .  S
C2362      C2363   1.417       .  A
C2363      C2364   1.400       .  A
C2363     Br2370   1.916       .  S
C2364      C2365   1.400       .  A
C2364      H2369   1.084       .  S
C2365      C2366   1.407       .  A
C2366     Br2367   1.920       .  S
C2371      C2372   1.401       .  A
C2371      C2376   1.396       .  A
C2371      H2378   1.084       .  S
C2372      C2373   1.405       .  A
C2373      C2374   1.396       .  A
C2373     Br2380   1.919       .  S
C2374      C2375   1.407       .  A
C2374      H2379   1.083       .  S
C2375      C2376   1.413       .  A
C2376     Br2377   1.920       .  S
C2381      C2382   1.403       .  A
C2381      C2386   1.398       .  A
C2381      H2388   1.084       .  S
C2382      C2383   1.408       .  A
C2383      C2384   1.395       .  A
C2383     Br2390   1.921       .  S
C2384      C2385   1.405       .  A
C2384      H2389   1.083       .  S
C2385      C2386   1.412       .  A
C2386     Br2387   1.919       .  S
C2391      C2392   1.405       .  A
C2391      C2396   1.395       .  A
C2391      H2398   1.083       .  S
C2392      C2393   1.414       .  A
C2393      C2394   1.396       .  A
C2393     Br2400   1.923       .  S
C2394      C2395   1.401       .  A
C2394      H2399   1.084       .  S
C2395      C2396   1.409       .  A
C2396     Br2397   1.920       .  S
