geometry optimzed in LAMMPS
_audit_creation_date              2020-12-01 
_audit_creation_method            'lammps2cif' 
_symmetry_space_group_name_H-M    'P1' 
_symmetry_Int_Tables_number       1 
_symmetry_cell_setting            triclinic 
loop_ 
_symmetry_equiv_pos_as_xyz 
  x,y,z 
_cell_length_a                    36.21976269 
_cell_length_b                    36.716299627162705 
_cell_length_c                    38.24205846478603 
_cell_angle_alpha                 92.55805083338504 
_cell_angle_beta                  89.74909547209268 
_cell_angle_gamma                 90.16375946577641 
loop_ 
_atom_site_label 
_atom_site_type_symbol 
_atom_site_fract_x 
_atom_site_fract_y 
_atom_site_fract_z 
_atom_site_charge 
C1          C  0.20720319  0.21134385  0.21640033     0.86800
C2          C  0.23019303  0.18556720  0.23816901    -0.53500
C3          C  0.24918518  0.20220849  0.26537163     0.09700
C4          C  0.24413032  0.24422316  0.26782995     0.20600
C5          C  0.18293036  0.23287972  0.24314906    -0.54200
C6          C  0.20181686  0.24996608  0.27019715     0.09800
C7          C  0.23590969  0.23955997  0.20481714    -0.53700
C8          C  0.25497918  0.25705734  0.23122983     0.10400
H9          H  0.23157995  0.15639309  0.23227306     0.14900
H10         H  0.25977499  0.25834214  0.28935091     0.00600
H11         H  0.15329740  0.23558411  0.24000885     0.15200
H12         H  0.24224528  0.24564641  0.17813248     0.15000
C13         C  0.09289964  0.45221431  0.42189491     0.30300
C14         C  0.09383122  0.51430634  0.46527285     0.30300
C15         C  0.09954972  0.48848508  0.40375076    -0.05900
C16         C  0.05666157  0.46041932  0.44283153    -0.06700
C17         C  0.12327873  0.45463605  0.44991535    -0.06600
C18         C  0.09839535  0.52003862  0.42563328    -0.05900
C19         C  0.05711276  0.49242010  0.46522636    -0.06700
C20         C  0.12262944  0.48518371  0.47203575    -0.06600
C21         C  0.10352278  0.54927060  0.40466391    -0.32000
N22         N  0.11188567  0.53629175  0.37200945     0.14500
C23         C  0.11000453  0.49953159  0.37107282    -0.32000
H24         H  0.11847055  0.48275964  0.34857520     0.16500
C25         C  0.02091541  0.50475291  0.46689253    -0.30900
N26         N  0.99855282  0.48146496  0.44809119     0.13300
C27         C  0.02020325  0.45529568  0.43241348    -0.30900
C28         C  0.14605877  0.47906060  0.49921482    -0.31200
N29         N  0.16322801  0.44648364  0.49352961     0.13800
H30         H  0.14658292  0.49546394  0.52322520     0.16400
C31         C  0.15015537  0.43200862  0.46251059    -0.31200
H32         H  0.15757641  0.40567414  0.45098151     0.16400
H33         H  0.01102950  0.43591666  0.41214012     0.16400
H34         H  0.10243747  0.57794273  0.41243584     0.16500
H35         H  0.01232958  0.53102105  0.47796656     0.16400
C36         C  0.21354496  0.74700861  0.68399717     0.86800
C37         C  0.23444667  0.77221114  0.65963680    -0.53500
C38         C  0.25597343  0.75476935  0.63467808     0.09700
C39         C  0.25448407  0.71267767  0.63632934     0.20600
C40         C  0.19188212  0.72104650  0.65850806    -0.54200
C41         C  0.21287627  0.70277088  0.63358506     0.09800
C42         C  0.24323822  0.72255485  0.69896134    -0.53700
C43         C  0.26480125  0.70471624  0.67446799     0.10400
H44         H  0.23343093  0.80169280  0.66303408     0.14900
H45         H  0.27212011  0.69854375  0.61625985     0.00600
H46         H  0.16244862  0.71649885  0.65948673     0.15200
H47         H  0.24701506  0.71964912  0.72686833     0.15000
C48         C  0.44463582  0.09237067  0.41708418     0.30300
C49         C  0.49775803  0.09355345  0.46868531     0.30300
C50         C  0.43705372  0.11715800  0.44972505    -0.05900
C51         C  0.45287533  0.05490224  0.43345411    -0.06700
C52         C  0.48425435  0.10357525  0.40619525    -0.06600
C53         C  0.46335904  0.11705362  0.47594255    -0.05900
C54         C  0.47942106  0.05606411  0.46047765    -0.06700
C55         C  0.51035705  0.10498865  0.43264594    -0.06600
C56         C  0.44710407  0.13264854  0.50553551    -0.32000
N57         N  0.41330965  0.14495694  0.49733299     0.14500
C58         C  0.40637242  0.13526745  0.46338347    -0.32000
H59         H  0.38059633  0.13988815  0.45011014     0.16500
C60         C  0.48316367  0.02115983  0.47189043    -0.30900
N61         N  0.46158794  0.99854543  0.45183559     0.13300
C62         C  0.44384338  0.01830782  0.42775169    -0.30900
C63         C  0.54274144  0.11818251  0.41907199    -0.31200
N64         N  0.53765847  0.12359589  0.38464802     0.13800
H65         H  0.56791053  0.12431768  0.43334310     0.16400
C66         C  0.50245208  0.11402375  0.37625406    -0.31200
H67         H  0.49073866  0.11606951  0.35044152     0.16400
H68         H  0.42688051  0.00667630  0.40686949     0.16400
H69         H  0.45824190  0.13392756  0.53178458     0.16500
H70         H  0.50142751  0.01239262  0.49214791     0.16400
C71         C  0.75259746  0.24667607  0.17363658     0.86800
C72         C  0.77432076  0.27402525  0.19763525    -0.53500
C73         C  0.75302349  0.29701354  0.21795924     0.09700
C74         C  0.71110355  0.29137789  0.21205116     0.20600
C75         C  0.72694330  0.22763059  0.19924266    -0.54200
C76         C  0.70481414  0.25062367  0.21915900     0.09800
C77         C  0.72728626  0.27057177  0.15245921    -0.53700
C78         C  0.70529017  0.29363284  0.17203646     0.10400
H79         H  0.80390820  0.27480602  0.20080088     0.14900
H80         H  0.69372726  0.31035816  0.22838630     0.00600
H81         H  0.72671455  0.19828253  0.20177388     0.15200
H82         H  0.72665578  0.26919653  0.12402128     0.15000
C83         C  0.22650122  0.25136580  0.74183728     0.86800
C84         C  0.20617974  0.27676477  0.71720689    -0.53500
C85         C  0.22874749  0.29975186  0.69953311     0.09700
C86         C  0.26957847  0.29633360  0.71005555     0.20600
C87         C  0.25715107  0.23283630  0.71964078    -0.54200
C88         C  0.27892151  0.25622970  0.70230788     0.09800
C89         C  0.24788605  0.27779472  0.76687476    -0.53700
C90         C  0.26989610  0.30190513  0.75025023     0.10400
H91         H  0.17641753  0.27657246  0.71498078     0.14900
H92         H  0.28909622  0.31421192  0.69649558     0.00600
H93         H  0.25955554  0.20346262  0.71568098     0.15200
H94         H  0.24766724  0.27709750  0.79508012     0.15000
C95         C  0.86495728  0.50812444  0.47065997     0.30300
C96         C  0.86441041  0.46140176  0.41233844     0.30300
C97         C  0.83826644  0.51694711  0.44165506    -0.05900
C98         C  0.90213627  0.50653652  0.45015731    -0.06700
C99         C  0.85915345  0.46777225  0.47681843    -0.06600
C100        C  0.83697444  0.49323531  0.41268625    -0.05900
C101        C  0.90243326  0.48145746  0.42009512    -0.06700
C102        C  0.85750212  0.44426823  0.44782716    -0.06600
C103        C  0.82246112  0.51269844  0.38576476    -0.32000
N104        N  0.81616534  0.54777659  0.39722217     0.14500
C105        C  0.82671109  0.55034277  0.43118915    -0.32000
H106        H  0.82930788  0.57556497  0.44674457     0.16500
C107        C  0.93880900  0.46892939  0.41774320    -0.30900
N108        N  0.96027376  0.48701288  0.44203777     0.13300
C109        C  0.93798008  0.50857909  0.46254711    -0.30900
C110        C  0.85156624  0.40986244  0.46009183    -0.31200
N111        N  0.85033380  0.41214500  0.49579941     0.13800
H112        H  0.84777838  0.38520237  0.44397857     0.16400
C113        C  0.85748781  0.44735364  0.50584673    -0.31200
H114        H  0.86230205  0.45782187  0.53220875     0.16400
H115        H  0.94645360  0.52147004  0.48718585     0.16400
H116        H  0.81805731  0.50156218  0.35958682     0.16500
H117        H  0.94809214  0.44593599  0.40143892     0.16400
C118        C  0.74559586  0.79786006  0.20425185     0.86800
C119        C  0.71427993  0.82035819  0.22175548    -0.53500
C120        C  0.69021470  0.80039359  0.24083560     0.09700
C121        C  0.69961156  0.75945859  0.24073725     0.20600
C122        C  0.76348198  0.77867001  0.23522115    -0.54200
C123        C  0.73959624  0.75835892  0.25441121     0.09800
C124        C  0.72648747  0.76649711  0.18325203    -0.53700
C125        C  0.70223987  0.74669292  0.20200039     0.10400
H126        H  0.71229744  0.84977518  0.22044238     0.14900
H127        H  0.67947050  0.74306053  0.25519075     0.00600
H128        H  0.79242728  0.77999724  0.24159656     0.15200
H129        H  0.73158904  0.76054140  0.15557282     0.15000
C130        C  0.73057694  0.18201365  0.69229202     0.86800
C131        C  0.71157319  0.15666576  0.66500248    -0.53500
C132        C  0.69320353  0.17439341  0.63997166     0.09700
C133        C  0.69473299  0.21609644  0.64454491     0.20600
C134        C  0.75435228  0.20832781  0.67161664    -0.54200
C135        C  0.73608843  0.22587724  0.64612319     0.09800
C136        C  0.69897820  0.20648839  0.70698714    -0.53700
C137        C  0.68077278  0.22487580  0.68199943     0.10400
H138        H  0.71196053  0.12712653  0.66583484     0.14900
H139        H  0.67884075  0.22932424  0.62401072     0.00600
H140        H  0.78337943  0.21286517  0.67733242     0.15200
H141        H  0.69218590  0.21117115  0.73437128     0.15000
C142        C  0.44286984  0.86380550  0.47434849     0.30300
C143        C  0.50301365  0.86642692  0.42977731     0.30300
C144        C  0.43941901  0.84197855  0.43870918    -0.05900
C145        C  0.45408607  0.90217276  0.46262931    -0.06700
C146        C  0.47967073  0.84862102  0.48806743    -0.06600
C147        C  0.46962210  0.84441614  0.41637517    -0.05900
C148        C  0.48497763  0.90378627  0.44019253    -0.06700
C149        C  0.51022597  0.85149437  0.46608032    -0.06600
C150        C  0.46066770  0.82725061  0.38475804    -0.32000
N151        N  0.42644678  0.81287657  0.38745723     0.14500
C152        C  0.41359676  0.82072695  0.42025542    -0.32000
H153        H  0.38714419  0.81115070  0.42910521     0.16500
C154        C  0.49094006  0.94047280  0.43483304    -0.30900
N155        N  0.46388746  0.96018461  0.45119083     0.13300
C156        C  0.44142599  0.93748003  0.46863500    -0.30900
C157        C  0.54028770  0.83809625  0.48340081    -0.31200
N158        N  0.52853380  0.82495214  0.51408067     0.13800
H159        H  0.56836820  0.83636652  0.47368056     0.16400
C160        C  0.49162652  0.83081478  0.51714549    -0.31200
H161        H  0.47482827  0.82238577  0.53882521     0.16400
H162        H  0.41818111  0.94603444  0.48477078     0.16400
H163        H  0.47716008  0.82668499  0.36106506     0.16500
H164        H  0.51385417  0.95288960  0.42131637     0.16400
C165        C  0.21921751  0.73387316  0.14487096     0.86800
C166        C  0.19452753  0.70495343  0.16099825    -0.53500
C167        C  0.21328287  0.67873636  0.17795456     0.09700
C168        C  0.25558457  0.68304945  0.17574786     0.20600
C169        C  0.24454254  0.74806756  0.17450537    -0.54200
C170        C  0.26351172  0.72179093  0.19086639     0.09800
C171        C  0.24475461  0.71100696  0.12005055    -0.53700
C172        C  0.26348184  0.68452476  0.13625634     0.10400
H173        H  0.16457949  0.70601852  0.16026960     0.14900
H174        H  0.27171163  0.66203781  0.18884992     0.00600
H175        H  0.24722815  0.77686856  0.18192299     0.15200
H176        H  0.24753577  0.71366667  0.09211560     0.15000
C177        C  0.75509800  0.71854060  0.71665519     0.86800
C178        C  0.77862003  0.69344076  0.69222970    -0.53500
C179        C  0.75940094  0.66641017  0.67433323     0.09700
C180        C  0.71732193  0.66731822  0.68247548     0.20600
C181        C  0.72497400  0.73282642  0.69230286    -0.54200
C182        C  0.70557093  0.70635926  0.67431913     0.09800
C183        C  0.73379399  0.69290109  0.74026943    -0.53700
C184        C  0.71425069  0.66586103  0.72290494     0.10400
H185        H  0.80786257  0.69820187  0.68800769     0.14900
H186        H  0.70119716  0.64581687  0.66796959     0.00600
H187        H  0.71871192  0.76109203  0.68843440     0.15200
H188        H  0.73332239  0.69661872  0.76860734     0.15000
C189        C  0.51480878  0.45581668  0.06439345     0.30300
C190        C  0.45604907  0.50255837  0.05867245     0.30300
C191        C  0.51894122  0.49384035  0.08214423    -0.05900
C192        C  0.50558006  0.46655747  0.02594456    -0.06700
C193        C  0.47705025  0.44212455  0.07718331    -0.06600
C194        C  0.48951818  0.51729905  0.07939707    -0.05900
C195        C  0.47543602  0.49101600  0.02348068    -0.06700
C196        C  0.44785838  0.46590702  0.07480039    -0.06600
C197        C  0.50217117  0.55176662  0.08915563    -0.32000
N198        N  0.53787965  0.54941423  0.09941482     0.14500
C199        C  0.54872858  0.51430424  0.09398251    -0.32000
H200        H  0.57656093  0.50446840  0.09746190     0.16500
C201        C  0.47545211  0.50294534  0.98969200    -0.30900
N202        N  0.50240205  0.48554291  0.97084232     0.13300
C203        C  0.52100313  0.46333047  0.99232657    -0.30900
C204        C  0.41803228  0.45079084  0.09163383    -0.31200
N205        N  0.42812201  0.41807143  0.10373917     0.13800
H206        H  0.39126888  0.46330663  0.09589418     0.16400
C207        C  0.46412892  0.41242151  0.09485855    -0.31200
H208        H  0.48044874  0.38957998  0.10276550     0.16400
H209        H  0.54386507  0.44635272  0.98374653     0.16400
H210        H  0.48704930  0.57695961  0.08712516     0.16500
H211        H  0.45776714  0.52342923  0.97930547     0.16400
C212        C  0.52582188  0.51108466  0.84117841     0.30300
C213        C  0.46195378  0.47063824  0.84494779     0.30300
C214        C  0.52413847  0.47537961  0.81747205    -0.05900
C215        C  0.51532477  0.49774989  0.87805997    -0.06700
C216        C  0.49002279  0.53001729  0.82921734    -0.06600
C217        C  0.49159596  0.45533244  0.81967962    -0.05900
C218        C  0.48289937  0.47727368  0.87929632    -0.06700
C219        C  0.45732956  0.50943326  0.83136206    -0.06600
C220        C  0.49345826  0.42656035  0.79537137    -0.32000
N221        N  0.52632841  0.42778939  0.77856946     0.14500
C222        C  0.54491786  0.45773896  0.79112674    -0.32000
H223        H  0.57171632  0.46546205  0.78147811     0.16500
C224        C  0.47610529  0.46950331  0.91360961    -0.30900
N225        N  0.50363594  0.48387395  0.93375892     0.13300
C226        C  0.52764943  0.50169307  0.91266566    -0.30900
C227        C  0.43354504  0.52305638  0.80682644    -0.31200
N228        N  0.44926494  0.55178763  0.79165539     0.13800
H229        H  0.40740877  0.51157510  0.79842419     0.16400
C230        C  0.48401154  0.55564078  0.80411897    -0.31200
H231        H  0.50427772  0.57407011  0.79380312     0.16400
H232        H  0.55117695  0.51754853  0.92186264     0.16400
H233        H  0.47272148  0.40571658  0.79052157     0.16500
H234        H  0.45212009  0.45554708  0.92347581     0.16400
N235        N  0.03138161  0.06331020  0.97514382    -0.05800
N236        N  0.03705157  0.08915441  0.99977869    -0.58000
N237        N  0.05602557  0.02926382  0.89594967    -0.05500
N238        N  0.08049791  0.03400723  0.87092628    -0.60100
N239        N  0.02974112  0.05369005  0.89465326    -0.05100
N240        N  0.03574130  0.07533593  0.86867712    -0.57900
N241        N  0.05725570  0.03833074  0.97623569    -0.04800
N242        N  0.08092966  0.04672762  0.00152288    -0.60400
C243        C  0.06814155  0.07858263  0.01613446     0.96300
C244        C  0.06758641  0.06286797  0.85393739     0.96100
N245        N  0.03126338  0.91855804  0.90268179    -0.06000
N246        N  0.03683108  0.89255986  0.87825163    -0.58500
N247        N  0.05782267  0.95277347  0.98103351    -0.04200
N248        N  0.08241933  0.94863753  0.00595895    -0.59800
N249        N  0.03166143  0.92809837  0.98297352    -0.06100
N250        N  0.03764825  0.90713220  0.00930026    -0.58800
N251        N  0.05650082  0.94421606  0.90045566    -0.03800
N252        N  0.07947384  0.93633502  0.87427842    -0.59900
Mn253      Mn  0.05820328  0.99113029  0.93842708     1.18400
C254        C  0.06667985  0.90419610  0.86039478     0.98400
C255        C  0.06936761  0.92007398  0.02363524     0.99100
N256        N  0.94281528  0.05234610  0.89584795    -0.06100
N257        N  0.93447206  0.07378410  0.87022213    -0.62400
N258        N  0.91878809  0.03664620  0.97752542    -0.04900
N259        N  0.89345474  0.04671534  0.00082747    -0.63100
N260        N  0.94421965  0.06208164  0.97539436    -0.05600
N261        N  0.93671445  0.08996595  0.99708203    -0.62700
N262        N  0.91793071  0.02636754  0.89798867    -0.04500
N263        N  0.89241032  0.02942997  0.87388508    -0.63300
Mn264      Mn  0.98711413  0.05898583  0.93517241     1.10700
C265        C  0.90298770  0.05908378  0.85672500     0.99600
C266        C  0.90500965  0.08003015  0.01274165     0.99700
N267        N  0.94510225  0.92635534  0.98513296    -0.05600
N268        N  0.93925592  0.90601394  0.01232299    -0.61000
N269        N  0.91811298  0.94134925  0.90380842    -0.04900
N270        N  0.89309194  0.93142152  0.88023529    -0.57700
N271        N  0.94429709  0.91674234  0.90474966    -0.06200
N272        N  0.93777549  0.88964689  0.88177497    -0.60500
N273        N  0.91964377  0.95168255  0.98388264    -0.05200
N274        N  0.89615547  0.94928569  0.01011185    -0.57700
Mn275      Mn  0.98820279  0.92130747  0.94393367     1.20200
Mn276      Mn  0.91766800  0.98896386  0.94083212     1.10100
Cl277      Cl  0.98783856  0.99014720  0.93961214    -0.85700
C278        C  0.90885943  0.92099844  0.02798725     0.96600
C279        C  0.90599002  0.89934846  0.86630866     0.96400
C280        C  0.88425531  0.87458916  0.84284281    -0.11700
C281        C  0.90123580  0.85058332  0.81785195     0.03800
C282        C  0.87950659  0.82704986  0.79674100    -0.12200
C283        C  0.84093387  0.82656940  0.80030912     0.18600
C284        C  0.82403890  0.84993825  0.82581838    -0.09300
C285        C  0.84564182  0.87412281  0.84633154    -0.02200
H286        H  0.89277609  0.80890773  0.77744282     0.05200
C287        C  0.81923945  0.80010483  0.77839702     0.20600
H288        H  0.83224585  0.89177236  0.86595552     0.10300
C289        C  0.82504747  0.76288355  0.78203059    -0.15600
C290        C  0.80536184  0.73670899  0.76199439     0.03300
C291        C  0.77831240  0.74730632  0.73760925    -0.10900
C292        C  0.77380392  0.78519963  0.73344958    -0.01000
C293        C  0.79395704  0.81123672  0.75330517    -0.06100
H294        H  0.84514578  0.75408047  0.80077634     0.06300
H295        H  0.75526897  0.79571184  0.71456532     0.09700
Br296      Br  0.77200800  0.84808591  0.83543462    -0.05800
Br297      Br  0.95371733  0.84951406  0.81037847    -0.02800
Br298      Br  0.81799656  0.68714548  0.76973756     0.00100
Br299      Br  0.78707635  0.86175632  0.74396823    -0.04300
C300        C  0.56118518  0.53457523  0.83828958    -0.11700
C301        C  0.56065437  0.57314825  0.84237928     0.03800
C302        C  0.58736663  0.59405019  0.82542522    -0.12200
C303        C  0.61581389  0.57722709  0.80554339     0.18600
C304        C  0.62014801  0.53919974  0.80722800    -0.09300
C305        C  0.59400431  0.51871005  0.82509341    -0.02200
H306        H  0.58537204  0.62350862  0.82700937     0.05200
C307        C  0.64080565  0.59951244  0.78372137     0.20600
H308        H  0.59860797  0.48985291  0.82709236     0.10300
C309        C  0.67867628  0.60100928  0.79107554    -0.15600
C310        C  0.70310860  0.62069096  0.77050579     0.03300
C311        C  0.68989713  0.64044061  0.74221805    -0.10900
C312        C  0.65205874  0.63840373  0.73444427    -0.01000
C313        C  0.62759997  0.61831987  0.75487333    -0.06100
H314        H  0.68941252  0.58636485  0.81279064     0.06300
H315        H  0.64128839  0.65306524  0.71283234     0.09700
Br316      Br  0.65881424  0.51318391  0.78245150    -0.05800
Br317      Br  0.52495656  0.59871698  0.87146077    -0.02800
Br318      Br  0.75452080  0.61713779  0.78100366     0.00100
Br319      Br  0.57650377  0.61673688  0.74182696    -0.04300
C320        C  0.09139152  0.89812958  0.04748755    -0.11700
C321        C  0.12631411  0.90899046  0.06088214     0.03800
C322        C  0.14680955  0.88469988  0.08021481    -0.12200
C323        C  0.13346844  0.84957705  0.08580688     0.18600
C324        C  0.09859265  0.83902823  0.07325455    -0.09300
C325        C  0.07764462  0.86340029  0.05496968    -0.02200
H326        H  0.17391364  0.89266343  0.08975290     0.05200
C327        C  0.15742666  0.82277260  0.10163186     0.20600
H328        H  0.05109719  0.85414865  0.04509172     0.10300
C329        C  0.15105238  0.81323299  0.13606989    -0.15600
C330        C  0.17107517  0.78518099  0.15052946     0.03300
C331        C  0.19751329  0.76515651  0.12981176    -0.10900
C332        C  0.20453078  0.77638033  0.09559953    -0.01000
C333        C  0.18475303  0.80468663  0.08157565    -0.06100
H334        H  0.13012712  0.82751034  0.15164876     0.06300
H335        H  0.22562351  0.76401457  0.07919631     0.09700
Br336      Br  0.07992399  0.79038510  0.07741379    -0.05800
Br337      Br  0.14859979  0.95548171  0.05312077    -0.02800
Br338      Br  0.16079837  0.77668020  0.19894031     0.00100
Br339      Br  0.19516781  0.81695077  0.03425870    -0.04300
C340        C  0.42269583  0.52802519  0.06350597    -0.11700
C341        C  0.39563632  0.53538855  0.03811966     0.03800
C342        C  0.36848194  0.56200640  0.04590074    -0.12200
C343        C  0.36511419  0.57798541  0.07985432     0.18600
C344        C  0.38660057  0.56427534  0.10666030    -0.09300
C345        C  0.41549364  0.54074464  0.09830057    -0.02200
H346        H  0.34911254  0.56920388  0.02586314     0.05200
C347        C  0.33889912  0.60805669  0.08811933     0.20600
H348        H  0.43218362  0.53158039  0.11963015     0.10300
C349        C  0.30077902  0.60265732  0.08374809    -0.15600
C350        C  0.27562311  0.62857852  0.09744440     0.03300
C351        C  0.28869252  0.65923351  0.11721857    -0.10900
C352        C  0.32660254  0.66589448  0.11932442    -0.01000
C353        C  0.35166935  0.64117566  0.10398293    -0.06100
H354        H  0.29059122  0.57784404  0.07072685     0.06300
H355        H  0.33671791  0.69033647  0.13309754     0.09700
Br356      Br  0.37603719  0.57480544  0.15541012    -0.05800
Br357      Br  0.38752726  0.50451921  0.99715914    -0.02800
Br358      Br  0.22388404  0.62085820  0.08917548     0.00100
Br359      Br  0.40317358  0.65372552  0.10556159    -0.04300
C360        C  0.55138020  0.80620564  0.53807727    -0.11700
C361        C  0.54827852  0.76828948  0.54130158     0.03800
C362        C  0.57226192  0.75019482  0.56335458    -0.12200
C363        C  0.59963600  0.76944035  0.58246053     0.18600
C364        C  0.60263765  0.80751406  0.57924152    -0.09300
C365        C  0.57867323  0.82550103  0.55709610    -0.02200
H366        H  0.57000676  0.72090814  0.56511967     0.05200
C367        C  0.62571862  0.74933887  0.60449566     0.20600
H368        H  0.58133711  0.85464871  0.55454040     0.10300
C369        C  0.66313904  0.74761873  0.59494973    -0.15600
C370        C  0.68909949  0.73156050  0.61642532     0.03300
C371        C  0.67781213  0.71626094  0.64793024    -0.10900
C372        C  0.64017281  0.71661256  0.65682460    -0.01000
C373        C  0.61413884  0.73284135  0.63532685    -0.06100
H374        H  0.67235988  0.75984611  0.57115612     0.06300
H375        H  0.63122204  0.70602770  0.68142025     0.09700
Br376      Br  0.63865509  0.83620686  0.60489721    -0.05800
Br377      Br  0.51321142  0.74007290  0.51421878    -0.02800
Br378      Br  0.74002897  0.73305277  0.60251703     0.00100
Br379      Br  0.56356175  0.73426502  0.65042255    -0.04300
C380        C  0.40465880  0.79804545  0.35888712    -0.11700
C381        C  0.41707179  0.76832423  0.33747209     0.03800
C382        C  0.39532421  0.75506791  0.30944771    -0.12200
C383        C  0.36123673  0.77117532  0.30240781     0.18600
C384        C  0.34868967  0.80067474  0.32397032    -0.09300
C385        C  0.37036758  0.81385261  0.35193314    -0.02200
H386        H  0.40489235  0.73202859  0.29322456     0.05200
C387        C  0.33861466  0.75656860  0.27294083     0.20600
H388        H  0.36064238  0.83677449  0.36821329     0.10300
C389        C  0.31454007  0.72741036  0.27824394    -0.15600
C390        C  0.29034265  0.71488569  0.25184928     0.03300
C391        C  0.29055986  0.73129927  0.21907242    -0.10900
C392        C  0.31564476  0.75984551  0.21369816    -0.01000
C393        C  0.33919230  0.77274140  0.24034093    -0.06100
H394        H  0.31360889  0.71526613  0.30354715     0.06300
H395        H  0.31634622  0.77282135  0.18880777     0.09700
Br396      Br  0.30199007  0.82349100  0.31630262    -0.05800
Br397      Br  0.46231197  0.74375918  0.34688673    -0.02800
Br398      Br  0.25560443  0.67819124  0.26412731     0.00100
Br399      Br  0.37050257  0.81355108  0.23158148    -0.04300
C400        C  0.75405670  0.16100782  0.71760744    -0.11700
C401        C  0.78423014  0.13943226  0.70484082     0.03800
C402        C  0.80691000  0.12185526  0.72807825    -0.12200
C403        C  0.80045406  0.12488214  0.76409119     0.18600
C404        C  0.77036528  0.14542566  0.77709839    -0.09300
C405        C  0.74738590  0.16301319  0.75402861    -0.02200
H406        H  0.83025249  0.10616179  0.71801747     0.05200
C407        C  0.82661438  0.10778713  0.78763585     0.20600
H408        H  0.72466669  0.17823822  0.76540724     0.10300
C409        C  0.84923236  0.13015738  0.80909005    -0.15600
C410        C  0.87470762  0.11511711  0.83158244     0.03300
C411        C  0.87843808  0.07685542  0.83206549    -0.10900
C412        C  0.85578592  0.05455178  0.81034941    -0.01000
C413        C  0.82993240  0.06969490  0.78830348    -0.06100
H414        H  0.84656118  0.15952894  0.80872935     0.06300
H415        H  0.85785778  0.02514366  0.81087234     0.09700
Br416      Br  0.75933849  0.15005749  0.82624518    -0.05800
Br417      Br  0.79738603  0.13318810  0.65606829    -0.02800
Br418      Br  0.90052987  0.14843541  0.86298960     0.00100
Br419      Br  0.79854086  0.03740049  0.76091626    -0.04300
C420        C  0.54183396  0.39823281  0.75731250    -0.11700
C421        C  0.56071759  0.40407938  0.72569264     0.03800
C422        C  0.57938024  0.37511302  0.70823531    -0.12200
C423        C  0.57942589  0.34025749  0.72189406     0.18600
C424        C  0.55937488  0.33415076  0.75264684    -0.09300
C425        C  0.54051841  0.36287398  0.76984007    -0.02200
H426        H  0.59506984  0.38008784  0.68473340     0.05200
C427        C  0.60551263  0.31233764  0.70798100     0.20600
H428        H  0.52644503  0.35805681  0.79425127     0.10300
C429        C  0.64124265  0.31283147  0.72169999    -0.15600
C430        C  0.66598430  0.28475442  0.71332441     0.03300
C431        C  0.65495976  0.25510519  0.69094635    -0.10900
C432        C  0.61967365  0.25537465  0.67585130    -0.01000
C433        C  0.59485637  0.28375939  0.68432486    -0.06100
H434        H  0.64971990  0.33499473  0.73957932     0.06300
H435        H  0.61127603  0.23325343  0.65789888     0.09700
Br436      Br  0.56000281  0.28775662  0.77387469    -0.05800
Br437      Br  0.56170440  0.45088728  0.70541559    -0.02800
Br438      Br  0.71509385  0.28974755  0.73175047     0.00100
Br439      Br  0.54681703  0.28241894  0.66348410    -0.04300
C440        C  0.77092695  0.82021258  0.18071177    -0.11700
C441        C  0.75721511  0.83512201  0.14958592     0.03800
C442        C  0.78134166  0.85145065  0.12616426    -0.12200
C443        C  0.81912846  0.85437406  0.13313937     0.18600
C444        C  0.83262615  0.84231279  0.16490921    -0.09300
C445        C  0.80883694  0.82552363  0.18824347    -0.02200
H446        H  0.77055768  0.86179854  0.10216382     0.05200
C447        C  0.84378237  0.87113861  0.10737550     0.20600
H448        H  0.82090494  0.81719708  0.21222979     0.10300
C449        C  0.84384413  0.90907970  0.10505722    -0.15600
C450        C  0.86575688  0.92592128  0.08021070     0.03300
C451        C  0.88797025  0.90457051  0.05677118    -0.10900
C452        C  0.88860282  0.86657540  0.05982855    -0.01000
C453        C  0.86661859  0.84980902  0.08473832    -0.06100
H454        H  0.82673114  0.92567993  0.12272990     0.06300
H455        H  0.90534678  0.84970093  0.04207822     0.09700
Br456      Br  0.88343065  0.84889540  0.17782389    -0.05800
Br457      Br  0.70589271  0.83416410  0.13675041    -0.02800
Br458      Br  0.86523724  0.97823557  0.08086433     0.00100
Br459      Br  0.86750040  0.79764790  0.08600269    -0.04300
C460        C  0.67918699  0.71711699  0.18551523    -0.11700
C461        C  0.67714058  0.68194413  0.19893517     0.03800
C462        C  0.65412107  0.65547018  0.18306485    -0.12200
C463        C  0.63335523  0.66311947  0.15352961     0.18600
C464        C  0.63595397  0.69774355  0.13946543    -0.09300
C465        C  0.65869338  0.72443499  0.15547235    -0.02200
H466        H  0.65264019  0.62859250  0.19361234     0.05200
C467        C  0.60870724  0.63467865  0.13819212     0.20600
H468        H  0.66002956  0.75118784  0.14466392     0.10300
C469        C  0.57231713  0.63253873  0.15045243    -0.15600
C470        C  0.54860428  0.60484811  0.13790172     0.03300
C471        C  0.56111077  0.57902723  0.11203880    -0.10900
C472        C  0.59770690  0.58132612  0.09986188    -0.01000
C473        C  0.62152583  0.60870852  0.11291222    -0.06100
H474        H  0.56264261  0.65198489  0.17056545     0.06300
H475        H  0.60784242  0.56156867  0.08028300     0.09700
Br476      Br  0.60899427  0.70946000  0.09843263    -0.05800
Br477      Br  0.70700446  0.66702776  0.23684378    -0.02800
Br478      Br  0.50091265  0.60172209  0.15966418     0.00100
Br479      Br  0.67155676  0.60922422  0.09627224    -0.04300
C480        C  0.66213022  0.81729433  0.26476431    -0.11700
C481        C  0.62480625  0.80656081  0.26334724     0.03800
C482        C  0.60030709  0.81862948  0.28982033    -0.12200
C483        C  0.61236447  0.84168226  0.31779593     0.18600
C484        C  0.64928718  0.85373952  0.31838779    -0.09300
C485        C  0.67378429  0.84168274  0.29189798    -0.02200
H486        H  0.57186945  0.80940347  0.28899404     0.05200
C487        C  0.58692570  0.84982931  0.34759262     0.20600
H488        H  0.70250772  0.84988282  0.29348009     0.10300
C489        C  0.57759615  0.82168119  0.36934516    -0.15600
C490        C  0.55158121  0.82675430  0.39620594     0.03300
C491        C  0.53509183  0.86170809  0.40326861    -0.10900
C492        C  0.54442432  0.88948054  0.38051374    -0.01000
C493        C  0.56994019  0.88393850  0.35316237    -0.06100
H494        H  0.58959288  0.79487328  0.36434261     0.06300
H495        H  0.52963986  0.91528402  0.38154640     0.09700
Br496      Br  0.66805179  0.88432906  0.35625189    -0.05800
Br497      Br  0.60594137  0.77606907  0.22548860    -0.02800
Br498      Br  0.53686798  0.78249692  0.41785973     0.00100
Br499      Br  0.57822593  0.92270905  0.32206533    -0.04300
C500        C  0.85423907  0.53205991  0.50345319    -0.11700
C501        C  0.81791668  0.52860803  0.51789634     0.03800
C502        C  0.80621928  0.55106483  0.54605238    -0.12200
C503        C  0.82812094  0.57947680  0.55975608     0.18600
C504        C  0.86417810  0.58354720  0.54585222    -0.09300
C505        C  0.87700707  0.55988542  0.51812167    -0.02200
H506        H  0.77877822  0.54707417  0.55666175     0.05200
C507        C  0.81177994  0.60384069  0.58836373     0.20600
H508        H  0.90405748  0.56450465  0.50717048     0.10300
C509        C  0.82836387  0.60621681  0.62150129    -0.15600
C510        C  0.81158822  0.62551476  0.64991071     0.03300
C511        C  0.77702936  0.64278876  0.64585048    -0.10900
C512        C  0.76002065  0.63957004  0.61294257    -0.01000
C513        C  0.77715390  0.62103364  0.58436118    -0.06100
H514        H  0.85409260  0.59209466  0.62560042     0.06300
H515        H  0.73360459  0.65246342  0.60905341     0.09700
Br516      Br  0.89597979  0.62237612  0.56231174    -0.05800
Br517      Br  0.78000136  0.49626319  0.49911766    -0.02800
Br518      Br  0.83603926  0.62453000  0.69418911     0.00100
Br519      Br  0.75240681  0.62145530  0.54003033    -0.04300
C520        C  0.75541468  0.25093609  0.62236243    -0.11700
C521        C  0.73835567  0.28203080  0.60904694     0.03800
C522        C  0.75772387  0.30356416  0.58613372    -0.12200
C523        C  0.79504575  0.29718380  0.57833086     0.18600
C524        C  0.81289273  0.26761468  0.59297685    -0.09300
C525        C  0.79269031  0.24395609  0.61341548    -0.02200
H526        H  0.74415709  0.32715557  0.57601467     0.05200
C527        C  0.81497346  0.32497427  0.55873409     0.20600
H528        H  0.80678927  0.22055214  0.62315173     0.10300
C529        C  0.81291551  0.36100822  0.57187895    -0.15600
C530        C  0.82346496  0.38994664  0.55180129     0.03300
C531        C  0.84040023  0.38304419  0.51850744    -0.10900
C532        C  0.84460125  0.34637018  0.50639435    -0.01000
C533        C  0.83077284  0.31759704  0.52552316    -0.06100
H534        H  0.79988016  0.36684124  0.59708735     0.06300
H535        H  0.85706474  0.33993537  0.48114359     0.09700
Br536      Br  0.86528662  0.26063737  0.58927542    -0.05800
Br537      Br  0.69146074  0.30122309  0.62423005    -0.02800
Br538      Br  0.80687066  0.43655359  0.57060451     0.00100
Br539      Br  0.83015693  0.26959089  0.50344012    -0.04300
C540        C  0.75241694  0.73378327  0.28221715    -0.11700
C541        C  0.72975717  0.72376881  0.31050675     0.03800
C542        C  0.73967909  0.69419259  0.33043258    -0.12200
C543        C  0.77387196  0.67664170  0.32550083     0.18800
C544        C  0.79874379  0.69037117  0.30079067    -0.09300
C545        C  0.78739223  0.71732983  0.27862569    -0.02200
H546        H  0.72035094  0.68481675  0.34974764     0.05200
C547        C  0.78247070  0.64294278  0.34433360     0.20600
H548        H  0.80607835  0.72455437  0.25792116     0.10300
C549        C  0.79602733  0.61232809  0.32503333    -0.15600
C550        C  0.80852366  0.58136594  0.34140962     0.03300
C551        C  0.80327089  0.57846973  0.37795905    -0.10900
C552        C  0.78686954  0.60823610  0.39676767    -0.01000
C553        C  0.77812928  0.64062074  0.38080847    -0.06100
H554        H  0.79896792  0.61332345  0.29689106     0.06300
H555        H  0.78210448  0.60707244  0.42463356     0.09700
Br556      Br  0.84914360  0.67435934  0.29663869    -0.05800
Br557      Br  0.68684044  0.75078222  0.32567008    -0.02800
Br558      Br  0.83701359  0.54809392  0.31210602     0.00100
Br559      Br  0.76416122  0.68147427  0.41109588    -0.04300
C560        C  0.09049841  0.08600694  0.83167539    -0.11700
C561        C  0.12924808  0.08191046  0.82795150     0.03800
C562        C  0.14981151  0.10902763  0.81224759    -0.12200
C563        C  0.13254421  0.13981529  0.79967720     0.18600
C564        C  0.09397754  0.14268391  0.80091008    -0.09300
C565        C  0.07328908  0.11590229  0.81676891    -0.02200
H566        H  0.17957264  0.10650412  0.81044615     0.05200
C567        C  0.15532676  0.16889754  0.78566130     0.20600
H568        H  0.04362616  0.11927878  0.81856333     0.10300
C569        C  0.16082117  0.16951186  0.74964519    -0.15600
C570        C  0.18297709  0.19615409  0.73528492     0.03300
C571        C  0.20059654  0.22320063  0.75735736    -0.10900
C572        C  0.19377034  0.22267820  0.79373926    -0.01000
C573        C  0.17166346  0.19571412  0.80783566    -0.06100
H574        H  0.14797268  0.14883245  0.73258807     0.06300
H575        H  0.20508739  0.24293895  0.81186992     0.09700
Br576      Br  0.06867418  0.18362414  0.78286768    -0.05800
Br577      Br  0.15671911  0.04139579  0.84436499    -0.02800
Br578      Br  0.18819890  0.19232889  0.68518374     0.00100
Br579      Br  0.16432639  0.19648416  0.85761756    -0.04300
C580        C  0.42753991  0.44639843  0.84752713    -0.11700
C581        C  0.43037739  0.40817810  0.85056580     0.03800
C582        C  0.40107824  0.38566471  0.83952271    -0.12200
C583        C  0.36843186  0.40063753  0.82685570     0.18600
C584        C  0.36283397  0.43848205  0.83150487    -0.09300
C585        C  0.39199261  0.46080365  0.84319386    -0.02200
H586        H  0.40462746  0.35634594  0.83873686     0.05200
C587        C  0.34247004  0.37669706  0.80662768     0.20600
H588        H  0.38703538  0.48966153  0.84719232     0.10300
C589        C  0.30593332  0.37254069  0.81803614    -0.15600
C590        C  0.28123431  0.34992701  0.79912594     0.03300
C591        C  0.29368498  0.32915332  0.76931733    -0.10900
C592        C  0.33002026  0.33402614  0.75758843    -0.01000
C593        C  0.35408113  0.35800093  0.77547821    -0.06100
H594        H  0.29641411  0.38737441  0.84146701     0.06300
H595        H  0.34002492  0.31887690  0.73453290     0.09700
Br596      Br  0.31772375  0.46174721  0.81891310    -0.05800
Br597      Br  0.47385295  0.38470304  0.86734937    -0.02800
Br598      Br  0.23037389  0.35142330  0.81358052     0.00100
Br599      Br  0.40202958  0.36537357  0.75524038    -0.04300
C600        C  0.88210900  0.10471453  0.03487014    -0.11700
C601        C  0.88040812  0.14257760  0.02990356     0.03800
C602        C  0.85815471  0.16456715  0.05189776    -0.12200
C603        C  0.83785569  0.14959439  0.07905517     0.18600
C604        C  0.83879859  0.11177828  0.08341273    -0.09300
C605        C  0.86067017  0.08967224  0.06122682    -0.02200
H606        H  0.85688245  0.19360061  0.04804129     0.05200
C607        C  0.81670010  0.17401075  0.10314795     0.20600
H608        H  0.86155467  0.06065450  0.06508688     0.10300
C609        C  0.77829972  0.17102094  0.10447766    -0.15600
C610        C  0.75753477  0.19315590  0.12772624     0.03300
C611        C  0.77512407  0.22018919  0.14976635    -0.10900
C612        C  0.81402325  0.22291516  0.14758739    -0.01000
C613        C  0.83460002  0.19999012  0.12505705    -0.06100
H614        H  0.76441529  0.15092051  0.08754662     0.06300
H615        H  0.82959466  0.24278444  0.16275526     0.09700
Br616      Br  0.81221885  0.08924113  0.12024501    -0.05800
Br617      Br  0.90587785  0.16593725  0.99276638    -0.02800
Br618      Br  0.70547255  0.18356172  0.12769465     0.00100
Br619      Br  0.88746191  0.20449965  0.12616250    -0.04300
C620        C  0.67857945  0.31780682  0.15498750    -0.11700
C621        C  0.65076779  0.30349264  0.13239271     0.03800
C622        C  0.62832782  0.32686718  0.11400173    -0.12200
C623        C  0.63291044  0.36468758  0.11747992     0.18600
C624        C  0.66052201  0.37912316  0.14010851    -0.09300
C625        C  0.68304333  0.35571693  0.15864786    -0.02200
H626        H  0.60631708  0.31550908  0.09775925     0.05200
C627        C  0.60464230  0.38837569  0.10223541     0.20600
H628        H  0.70455955  0.36712751  0.17541481     0.10300
C629        C  0.58003819  0.40588624  0.12531241    -0.15600
C630        C  0.55157331  0.42728789  0.11337053     0.03300
C631        C  0.54627788  0.43141528  0.07663285    -0.10900
C632        C  0.57110448  0.41334081  0.05339496    -0.01000
C633        C  0.60017110  0.39209198  0.06595239    -0.06100
H634        H  0.58304335  0.40278438  0.15322335     0.06300
H635        H  0.56828110  0.41548546  0.02558127     0.09700
Br636      Br  0.66871697  0.43065450  0.14598362    -0.05800
Br637      Br  0.64009682  0.25245696  0.12723639    -0.02800
Br638      Br  0.52217073  0.45030250  0.15041252     0.00100
Br639      Br  0.63395182  0.36962756  0.03293440    -0.04300
C640        C  0.77032118  0.32134433  0.24566334    -0.11700
C641        C  0.79133973  0.30671379  0.27276462     0.03800
C642        C  0.81052478  0.32988098  0.29656213    -0.12200
C643        C  0.80965069  0.36788740  0.29400994     0.18600
C644        C  0.78913531  0.38252091  0.26665823    -0.09300
C645        C  0.76958325  0.35933096  0.24290455    -0.02200
H646        H  0.82550622  0.31820621  0.31779846     0.05200
C647        C  0.82540892  0.39141587  0.32320435     0.20600
H648        H  0.75431786  0.37097860  0.22186040     0.10300
C649        C  0.85893202  0.41046038  0.31973111    -0.15600
C650        C  0.87327093  0.43298032  0.34756937     0.03300
C651        C  0.85500249  0.43509066  0.38063098    -0.10900
C652        C  0.82065314  0.41668755  0.38271391    -0.01000
C653        C  0.80609887  0.39539819  0.35492887    -0.06100
H654        H  0.87330570  0.40886731  0.29481529     0.06300
H655        H  0.80373068  0.42013544  0.40601744     0.09700
Br656      Br  0.78650457  0.43405239  0.26123874    -0.05800
Br657      Br  0.79379717  0.25519932  0.27930954    -0.02800
Br658      Br  0.91399084  0.46362059  0.33608019     0.00100
Br659      Br  0.75798889  0.37427700  0.36074073    -0.04300
C660        C  0.52915399  0.09857185  0.49544339    -0.11700
C661        C  0.56061563  0.07548997  0.49611186     0.03800
C662        C  0.58941596  0.08353461  0.51977043    -0.12200
C663        C  0.58847719  0.11513563  0.54164992     0.18600
C664        C  0.55938491  0.13969743  0.53884261    -0.09300
C665        C  0.53130297  0.13205353  0.51512362    -0.02200
H666        H  0.61318340  0.06572745  0.52032048     0.05200
C667        C  0.61889424  0.12420133  0.56581626     0.20600
H668        H  0.51246636  0.15405104  0.51093524     0.10300
C669        C  0.64889693  0.14449330  0.55387273    -0.15600
C670        C  0.67428004  0.16019093  0.57754896     0.03300
C671        C  0.66987474  0.15514424  0.61362321    -0.10900
C672        C  0.64085374  0.13336237  0.62528315    -0.01000
C673        C  0.61515748  0.11829437  0.60170675    -0.06100
H674        H  0.65152400  0.14956281  0.52627433     0.06300
H675        H  0.63704997  0.12967828  0.65302543     0.09700
Br676      Br  0.55752224  0.18515332  0.56582199    -0.05800
Br677      Br  0.56970379  0.03638039  0.46218268    -0.02800
Br678      Br  0.71412244  0.18833506  0.55935754     0.00100
Br679      Br  0.57356051  0.09262583  0.61981855    -0.04300
C680        C  0.39047435  0.16559971  0.52153215    -0.11700
C681        C  0.35586872  0.15253745  0.53227149     0.03800
C682        C  0.33771662  0.16988029  0.56076605    -0.12200
C683        C  0.35363396  0.20025912  0.57849662     0.18600
C684        C  0.38724784  0.21440606  0.56662556    -0.09300
C685        C  0.40547439  0.19693090  0.53843885    -0.02200
H686        H  0.31169083  0.15903481  0.56979988     0.05200
C687        C  0.33565213  0.21592757  0.61023846     0.20600
H688        H  0.43213374  0.20703813  0.53026827     0.10300
C689        C  0.34653610  0.20423992  0.64307194    -0.15600
C690        C  0.32923652  0.21790604  0.67367913     0.03300
C691        C  0.30087244  0.24380039  0.67147660    -0.10900
C692        C  0.29079850  0.25611094  0.63862022    -0.01000
C693        C  0.30780758  0.24221576  0.60809847    -0.06100
H694        H  0.36830982  0.18423558  0.64480541     0.06300
H695        H  0.26875349  0.27570510  0.63648467     0.09700
Br696      Br  0.40962157  0.25682502  0.58877407    -0.05800
Br697      Br  0.33407269  0.10947689  0.51100382    -0.02800
Br698      Br  0.34565610  0.20116493  0.71779153     0.00100
Br699      Br  0.29177315  0.25929391  0.56401745    -0.04300
C700        C  0.56285637  0.14257999  0.36270496    -0.11700
C701        C  0.57364561  0.12787136  0.32962409     0.03800
C702        C  0.59692854  0.14788397  0.30828273    -0.12200
C703        C  0.60994913  0.18247008  0.31955946     0.18600
C704        C  0.59979658  0.19687123  0.35292029    -0.09300
C705        C  0.57641735  0.17692127  0.37418619    -0.02200
H706        H  0.60520680  0.13631728  0.28290025     0.05200
C707        C  0.63475713  0.20252727  0.29631019     0.20600
H708        H  0.56835508  0.18838705  0.39965825     0.10300
C709        C  0.62004311  0.22843251  0.27444143    -0.15600
C710        C  0.64233825  0.24537860  0.24979769     0.03300
C711        C  0.68021879  0.23649274  0.24690320    -0.10900
C712        C  0.69486635  0.21119197  0.26965842    -0.01000
C713        C  0.67254855  0.19427342  0.29408333    -0.06100
H714        H  0.59082725  0.23462489  0.27581475     0.06300
H715        H  0.72382290  0.20402461  0.26803913     0.09700
Br716      Br  0.61767132  0.24327512  0.37064001    -0.05800
Br717      Br  0.55914163  0.07976828  0.31358797    -0.02800
Br718      Br  0.61844110  0.27761509  0.21910884     0.00100
Br719      Br  0.69460131  0.15939572  0.32342392    -0.04300
C720        C  0.19163287  0.76827617  0.71302041    -0.11700
C721        C  0.20944421  0.79407184  0.73625964     0.03800
C722        C  0.18888667  0.81492533  0.76100031    -0.12200
C723        C  0.15071780  0.81011133  0.76440255     0.18600
C724        C  0.13304140  0.78346144  0.74291734    -0.09300
C725        C  0.15323097  0.76304382  0.71771519    -0.02200
H726        H  0.20283738  0.83505133  0.77784088     0.05200
C727        C  0.12959402  0.83405995  0.78951006     0.20600
H728        H  0.13786558  0.74315377  0.70226345     0.10300
C729        C  0.12435999  0.87079780  0.78207837    -0.15600
C730        C  0.10378120  0.89410536  0.80467561     0.03300
C731        C  0.08790810  0.88062185  0.83528042    -0.10900
C732        C  0.09315529  0.84389191  0.84263633    -0.01000
C733        C  0.11416241  0.82078894  0.82035321    -0.06100
H734        H  0.13595769  0.88124633  0.75834802     0.06300
H735        H  0.08159093  0.83328383  0.86630726     0.09700
Br736      Br  0.08088985  0.77452617  0.74623298    -0.05800
Br737      Br  0.26192167  0.80243524  0.73633214    -0.02800
Br738      Br  0.09635569  0.94337575  0.79145437     0.00100
Br739      Br  0.12209795  0.77175893  0.83388086    -0.04300
C740        C  0.29485209  0.67998643  0.68486320    -0.11700
C741        C  0.28721205  0.64872630  0.70382647     0.03800
C742        C  0.31623661  0.62808284  0.71664295    -0.12200
C743        C  0.35316073  0.63821742  0.71128312     0.18600
C744        C  0.36083451  0.66871013  0.69133598    -0.09300
C745        C  0.33177995  0.68950189  0.67875894    -0.02200
H746        H  0.30995155  0.60461873  0.73184387     0.05200
C747        C  0.38271326  0.61781937  0.72873303     0.20600
H748        H  0.33827392  0.71417810  0.66568360     0.10300
C749        C  0.38928204  0.58124752  0.71835835    -0.15600
C750        C  0.41317537  0.55974470  0.73744954     0.03300
C751        C  0.43088064  0.57469510  0.76758991    -0.10900
C752        C  0.42581717  0.61175000  0.77687517    -0.01000
C753        C  0.40167925  0.63321102  0.75799924    -0.06100
H754        H  0.37495854  0.56911886  0.69589704     0.06300
H755        H  0.43882501  0.62333804  0.80028346     0.09700
Br756      Br  0.41046292  0.68328071  0.68098304    -0.05800
Br757      Br  0.23758701  0.63350003  0.71355327    -0.02800
Br758      Br  0.42078642  0.51003943  0.72157146     0.00100
Br759      Br  0.39253657  0.68222798  0.77542724    -0.04300
C760        C  0.40989493  0.86238457  0.50014072    -0.11700
C761        C  0.41367133  0.86897011  0.53678366     0.03800
C762        C  0.38761771  0.85438546  0.55982426    -0.12200
C763        C  0.35655330  0.83518473  0.54684641     0.18600
C764        C  0.34944044  0.83522631  0.51072658    -0.09300
C765        C  0.37493292  0.85085328  0.48829843    -0.02200
H766        H  0.39181993  0.85763343  0.58781487     0.05200
C767        C  0.33153858  0.81563994  0.57074816     0.20600
H768        H  0.36711929  0.85389638  0.46151151     0.10300
C769        C  0.29478191  0.82704482  0.57504230    -0.15600
C770        C  0.26941840  0.80701639  0.59436652     0.03300
C771        C  0.28081965  0.77512236  0.61078845    -0.10900
C772        C  0.31742200  0.76342147  0.60561510    -0.01000
C773        C  0.34278098  0.78349783  0.58638796    -0.06100
H774        H  0.28545675  0.85110837  0.56228378     0.06300
H775        H  0.32660348  0.73844197  0.61651852     0.09700
Br776      Br  0.30708870  0.81139349  0.49003477    -0.05800
Br777      Br  0.45154981  0.90019731  0.55657745    -0.02800
Br778      Br  0.21885224  0.82251945  0.59372416     0.00100
Br779      Br  0.39218952  0.76515949  0.58128233    -0.04300
C780        C  0.21709494  0.32432776  0.67124171    -0.11700
C781        C  0.18791525  0.31628650  0.64737926     0.03800
C782        C  0.18229097  0.33844341  0.61906775    -0.12200
C783        C  0.20746608  0.36597942  0.61102905     0.18600
C784        C  0.23669398  0.37375960  0.63436352    -0.09300
C785        C  0.23961525  0.35474813  0.66500794    -0.02200
H786        H  0.15905164  0.33272178  0.60193006     0.05200
C787        C  0.20210216  0.38634748  0.57863813     0.20600
H788        H  0.26123914  0.36300393  0.68307511     0.10300
C789        C  0.20327148  0.42457009  0.58036709    -0.15600
C790        C  0.19646253  0.44458441  0.55088022     0.03300
C791        C  0.18246097  0.42677084  0.52003545    -0.10900
C792        C  0.18362932  0.38833686  0.51771434    -0.01000
C793        C  0.19469901  0.36830040  0.54606337    -0.06100
H794        H  0.20994946  0.43916418  0.60474059     0.06300
H795        H  0.17526901  0.37328833  0.49417651     0.09700
Br796      Br  0.27640411  0.40647844  0.62409710    -0.05800
Br797      Br  0.15697916  0.27381450  0.64757732    -0.02800
Br798      Br  0.21162296  0.49487111  0.55388916     0.00100
Br799      Br  0.20036497  0.31652032  0.53820419    -0.04300
C800        C  0.12405969  0.55724616  0.34351986    -0.11700
C801        C  0.15581048  0.57943036  0.34643013     0.03800
C802        C  0.16837637  0.59760122  0.31739240    -0.12200
C803        C  0.14973268  0.59384757  0.28544664     0.18600
C804        C  0.11807415  0.57180655  0.28246533    -0.09300
C805        C  0.10553372  0.55350293  0.31144823    -0.02200
H806        H  0.19290161  0.61451434  0.31960056     0.05200
C807        C  0.16338819  0.61390462  0.25574736     0.20600
H808        H  0.08134292  0.53618039  0.30907572     0.10300
C809        C  0.19028534  0.59813058  0.23354211    -0.15600
C810        C  0.20570904  0.61775073  0.20655487     0.03300
C811        C  0.19426682  0.65402156  0.20191559    -0.10900
C812        C  0.16612263  0.66891684  0.22362139    -0.01000
C813        C  0.15078512  0.64921601  0.25033404    -0.06100
H814        H  0.19961933  0.57062146  0.23755615     0.06300
H815        H  0.15719018  0.69676161  0.22110903     0.09700
Br816      Br  0.09146316  0.56608772  0.23933046    -0.05800
Br817      Br  0.18449780  0.58371048  0.38844127    -0.02800
Br818      Br  0.24138789  0.59283865  0.17713469     0.00100
Br819      Br  0.11388682  0.67217104  0.27988347    -0.04300
C820        C  0.10162833  0.54778847  0.49054835    -0.11700
C821        C  0.09274886  0.54854353  0.52692327     0.03800
C822        C  0.10899919  0.57475089  0.55039642    -0.12200
C823        C  0.13451269  0.60051409  0.53876074     0.18600
C824        C  0.14347885  0.60000632  0.50318123    -0.09300
C825        C  0.12875039  0.57317861  0.48030651    -0.02200
H826        H  0.10276101  0.57412096  0.57808834     0.05200
C827        C  0.15400694  0.62618809  0.56375219     0.20600
H828        H  0.14183870  0.57071712  0.45511760     0.10300
C829        C  0.18854676  0.61661717  0.57711034    -0.15600
C830        C  0.20912016  0.64124304  0.59858447     0.03300
C831        C  0.19513158  0.67653511  0.60723130    -0.10900
C832        C  0.16089592  0.68614238  0.59275016    -0.01000
C833        C  0.14052078  0.66147605  0.57139829    -0.06100
H834        H  0.19964063  0.58976704  0.57064523     0.06300
H835        H  0.14966289  0.71311198  0.59823400     0.09700
Br836      Br  0.17789301  0.63427205  0.48480558    -0.05800
Br837      Br  0.06375483  0.51127963  0.54760280    -0.02800
Br838      Br  0.25495567  0.62372729  0.61607230     0.00100
Br839      Br  0.09444609  0.67715336  0.55278515    -0.04300
C840        C  0.18462468  0.19147026  0.18688300    -0.11700
C841        C  0.15949889  0.16285275  0.19409462     0.03800
C842        C  0.14019007  0.14436854  0.16682309    -0.12200
C843        C  0.14466886  0.15383135  0.13196501     0.18600
C844        C  0.16852788  0.18261742  0.12453572    -0.09300
C845        C  0.18778971  0.20115408  0.15150494    -0.02200
H846        H  0.12141666  0.12248469  0.17287106     0.05200
C847        C  0.12406944  0.13390227  0.10350758     0.20600
H848        H  0.20463376  0.22340021  0.14360918     0.10300
C849        C  0.09458179  0.15106167  0.08728624    -0.15600
C850        C  0.07589268  0.13404708  0.05888455     0.03300
C851        C  0.08639567  0.09860174  0.04634133    -0.10900
C852        C  0.11597660  0.08158271  0.06297391    -0.01000
C853        C  0.13477388  0.09889477  0.09105067    -0.06100
H854        H  0.08651313  0.17826026  0.09641378     0.06300
H855        H  0.12494391  0.05465125  0.05394605     0.09700
Br856      Br  0.17647149  0.19722317  0.07747246    -0.05800
Br857      Br  0.14959747  0.14737403  0.24052944    -0.02800
Br858      Br  0.03768365  0.16199244  0.03813203     0.00100
Br859      Br  0.17610171  0.07438230  0.11048902    -0.04300
C860        C  0.28180073  0.28653751  0.22280251    -0.11700
C861        C  0.31972523  0.28503309  0.23104793     0.03800
C862        C  0.34502761  0.30807712  0.21461190    -0.12200
C863        C  0.33310252  0.33293800  0.19010550     0.18600
C864        C  0.29508951  0.33564610  0.18333358    -0.09300
C865        C  0.26996559  0.31305596  0.19989321    -0.02200
H866        H  0.37421703  0.30579722  0.22013297     0.05200
C867        C  0.36028272  0.35447705  0.17012398     0.20600
H868        H  0.24100980  0.31466653  0.19312008     0.10300
C869        C  0.37887768  0.33777156  0.14136809    -0.15600
C870        C  0.40129124  0.35819981  0.11936562     0.03300
C871        C  0.40591528  0.39602744  0.12621556    -0.10900
C872        C  0.38763365  0.41256913  0.15528582    -0.01000
C873        C  0.36499814  0.39220893  0.17705939    -0.06100
H874        H  0.37474315  0.30896875  0.13519485     0.06300
H875        H  0.39087232  0.44156090  0.16093740     0.09700
Br876      Br  0.27640924  0.36742735  0.14907971    -0.05800
Br877      Br  0.33885003  0.25020580  0.26207296    -0.02800
Br878      Br  0.42184344  0.33397016  0.07834900     0.00100
Br879      Br  0.34026428  0.41710600  0.21556262    -0.04300
C880        C  0.27442302  0.18115620  0.28783048    -0.11700
C881        C  0.27413644  0.18481179  0.32478552     0.03800
C882        C  0.29928936  0.16498936  0.34434746    -0.12200
C883        C  0.32481171  0.14114692  0.32777681     0.18600
C884        C  0.32412612  0.13638355  0.29108140    -0.09300
C885        C  0.29917663  0.15617560  0.27152814    -0.02200
H886        H  0.29958934  0.16890487  0.37259325     0.05200
C887        C  0.35526951  0.12574905  0.34842084     0.20600
H888        H  0.29981336  0.15268925  0.24325680     0.10300
C889        C  0.34937835  0.09636726  0.37005241    -0.15600
C890        C  0.37780997  0.08353901  0.39144894     0.03300
C891        C  0.41403755  0.09871709  0.38988459    -0.10900
C892        C  0.41796007  0.12997168  0.36973264    -0.01000
C893        C  0.38985735  0.14277126  0.34886777    -0.06100
H894        H  0.32200398  0.08458166  0.37163296     0.06300
H895        H  0.44191478  0.14729202  0.37233635     0.09700
Br896      Br  0.35775429  0.10393820  0.26656743    -0.05800
Br897      Br  0.23913318  0.21497347  0.35014019    -0.02800
Br898      Br  0.36240399  0.05076307  0.42635430     0.00100
Br899      Br  0.39905463  0.18639700  0.32422324    -0.04300
C900        C  0.18327977  0.27525760  0.29649132    -0.11700
C901        C  0.15046143  0.26580179  0.31420901     0.03800
C902        C  0.13134918  0.29215162  0.33493569    -0.12200
C903        C  0.14448549  0.32808223  0.33883422     0.18600
C904        C  0.17877516  0.33671138  0.32343407    -0.09300
C905        C  0.19761373  0.31054547  0.30235080    -0.02200
H906        H  0.10579449  0.28469169  0.34762544     0.05200
C907        C  0.12230668  0.35633653  0.35871742     0.20600
H908        H  0.22310166  0.31820045  0.28965539     0.10300
C909        C  0.11404308  0.35264174  0.39433934    -0.15600
C910        C  0.09836194  0.38175582  0.41444398     0.03300
C911        C  0.09356009  0.41607585  0.39945291    -0.10900
C912        C  0.09340569  0.41605209  0.36269638    -0.01000
C913        C  0.10869163  0.38718087  0.34240121    -0.06100
H914        H  0.12078607  0.32759119  0.40677248     0.06300
H915        H  0.08122638  0.43826797  0.34944717     0.09700
Br916      Br  0.20145915  0.38374497  0.33087215    -0.05800
Br917      Br  0.13135781  0.21700696  0.31261724    -0.02800
Br918      Br  0.08366296  0.37294174  0.46170612     0.00100
Br919      Br  0.11050750  0.39135568  0.29255979    -0.04300
loop_ 
_geom_bond_atom_site_label_1 
_geom_bond_atom_site_label_2 
_geom_bond_distance 
_geom_bond_site_symmetry_2 
_ccdc_geom_bond_type 
C1            C2   1.537       .  S
C1            C7   1.543       .  S
C1            C5   1.539       .  S
C1          C840   1.551       .  S
C2            H9   1.086       .  S
C2            C3   1.370       .  D
C3            C4   1.553       .  S
C3          C880   1.497       .  S
C4            C8   1.545       .  S
C4            C6   1.549       .  S
C4           H10   1.110       .  S
C5           H11   1.086       .  S
C5            C6   1.370       .  D
C6          C900   1.496       .  S
C7           H12   1.078       .  S
C7            C8   1.362       .  D
C8          C860   1.497       .  S
C13          C15   1.547       .  S
C13          C17   1.539       .  S
C13          C16   1.558       .  S
C13         C911   1.548       .  S
C14          C18   1.548       .  S
C14          C20   1.527       .  S
C14          C19   1.552       .  S
C14         C820   1.556       .  S
C15          C23   1.382       .  A
C15          C18   1.399       .  A
C16          C27   1.391       .  A
C16          C19   1.423       .  A
C17          C31   1.384       .  A
C17          C20   1.375       .  A
C18          C21   1.380       .  A
C19          C25   1.389       .  A
C20          C28   1.371       .  A
C21          N22   1.350       .  A
C21          H34   1.082       .  S
N22          C23   1.350       .  A
N22         C800   1.429       .  S
C23          H24   1.079       .  S
C25          N26   1.360   1_455  A
C25          H35   1.082       .  S
N26          C27   1.359   1_655  A
N26         N108   1.423       .  S
C27          H33   1.081       .  S
C28          N29   1.358       .  A
C28          H30   1.076       .  S
N29          C31   1.364       .  A
N29         C791   1.453       .  S
C31          H32   1.079       .  S
C36          C37   1.538       .  S
C36          C42   1.532       .  S
C36          C40   1.547       .  S
C36         C720   1.546       .  S
C37          H44   1.085       .  S
C37          C38   1.368       .  D
C38          C39   1.550       .  S
C38         C771   1.501       .  S
C39          C43   1.548       .  S
C39          C41   1.552       .  S
C39          H45   1.108       .  S
C40          H46   1.079       .  S
C40          C41   1.370       .  D
C41         C831   1.507       .  S
C42          H47   1.087       .  S
C42          C43   1.363       .  D
C43         C740   1.486       .  S
C48          C50   1.536       .  S
C48          C52   1.552       .  S
C48          C51   1.567       .  S
C48         C891   1.548       .  S
C49          C53   1.535       .  S
C49          C55   1.526       .  S
C49          C54   1.547       .  S
C49         C660   1.538       .  S
C50          C58   1.385       .  A
C50          C53   1.386       .  A
C51          C62   1.390       .  A
C51          C54   1.414       .  A
C52          C66   1.387       .  A
C52          C55   1.387       .  A
C53          C56   1.376       .  A
C54          C60   1.379       .  A
C55          C63   1.376       .  A
C56          N57   1.349       .  A
C56          H69   1.083       .  S
N57          C58   1.355       .  A
N57         C680   1.432       .  S
C58          H59   1.082       .  S
C60          N61   1.354   1_545  A
C60          H70   1.081       .  S
N61          C62   1.362   1_565  A
N61         N155   1.410       .  S
C62          H68   1.082       .  S
C63          N64   1.354       .  A
C63          H65   1.083       .  S
N64          C66   1.358       .  A
N64         C700   1.437       .  S
C66          H67   1.082       .  S
C71          C72   1.546       .  S
C71          C77   1.530       .  S
C71          C75   1.536       .  S
C71         C611   1.537       .  S
C72          H79   1.079       .  S
C72          C73   1.361       .  D
C73          C74   1.548       .  S
C73         C640   1.494       .  S
C74          C78   1.551       .  S
C74          C76   1.549       .  S
C74          H80   1.110       .  S
C75          H81   1.086       .  S
C75          C76   1.370       .  D
C76         C711   1.492       .  S
C77          H82   1.087       .  S
C77          C78   1.362       .  D
C78         C620   1.487       .  S
C83          C84   1.545       .  S
C83          C89   1.542       .  S
C83          C87   1.536       .  S
C83         C571   1.532       .  S
C84          H91   1.082       .  S
C84          C85   1.371       .  D
C85          C86   1.541       .  S
C85         C780   1.502       .  S
C86          C90   1.542       .  S
C86          C88   1.528       .  S
C86          H92   1.106       .  S
C87          H93   1.086       .  S
C87          C88   1.357       .  D
C88         C691   1.475       .  S
C89          H94   1.080       .  S
C89          C90   1.366       .  D
C90         C591   1.487       .  S
C95          C97   1.521       .  S
C95          C99   1.524       .  S
C95          C98   1.555       .  S
C95         C500   1.548       .  S
C96         C100   1.536       .  S
C96         C102   1.540       .  S
C96         C101   1.583       .  S
C96         C651   1.555       .  S
C97         C105   1.374       .  A
C97         C100   1.379       .  A
C98         C109   1.385       .  A
C98         C101   1.441       .  A
C99         C113   1.368       .  A
C99         C102   1.376       .  A
C100        C103   1.385       .  A
C101        C107   1.398       .  A
C102        C110   1.383       .  A
C103        N104   1.361       .  A
C103        H116   1.077       .  S
N104        C105   1.355       .  A
N104        C551   1.453       .  S
C105        H106   1.082       .  S
C107        N108   1.363       .  A
C107        H117   1.080       .  S
N108        C109   1.355       .  A
C109        H115   1.081       .  S
C110        N111   1.365       .  A
C110        H112   1.081       .  S
N111        C113   1.357       .  A
N111        C531   1.450       .  S
C113        H114   1.078       .  S
C118        C119   1.538       .  S
C118        C124   1.539       .  S
C118        C122   1.550       .  S
C118        C440   1.543       .  S
C119        H126   1.086       .  S
C119        C120   1.367       .  D
C120        C121   1.542       .  S
C120        C480   1.484       .  S
C121        C125   1.536       .  S
C121        C123   1.543       .  S
C121        H127   1.106       .  S
C122        H128   1.078       .  S
C122        C123   1.372       .  D
C123        C540   1.501       .  S
C124        H129   1.086       .  S
C124        C125   1.361       .  D
C125        C460   1.487       .  S
C130        C131   1.531       .  S
C130        C136   1.545       .  S
C130        C134   1.535       .  S
C130        C400   1.527       .  S
C131        H138   1.087       .  S
C131        C132   1.359       .  D
C132        C133   1.534       .  S
C132        C671   1.473       .  S
C133        C137   1.538       .  S
C133        C135   1.540       .  S
C133        H139   1.106       .  S
C134        H140   1.086       .  S
C134        C135   1.367       .  D
C135        C520   1.492       .  S
C136        H141   1.081       .  S
C136        C137   1.367       .  D
C137        C431   1.481       .  S
C142        C144   1.555       .  S
C142        C146   1.549       .  S
C142        C145   1.550       .  S
C142        C760   1.548       .  S
C143        C147   1.530       .  S
C143        C149   1.539       .  S
C143        C148   1.556       .  S
C143        C491   1.544       .  S
C144        C152   1.391       .  A
C144        C147   1.390       .  A
C145        C156   1.385       .  A
C145        C148   1.410       .  A
C146        C160   1.386       .  A
C146        C149   1.394       .  A
C147        C150   1.378       .  A
C148        C154   1.388       .  A
C149        C157   1.380       .  A
C150        N151   1.351       .  A
C150        H163   1.083       .  S
N151        C152   1.355       .  A
N151        C380   1.437       .  S
C152        H153   1.078       .  S
C154        N155   1.354       .  A
C154        H164   1.086       .  S
N155        C156   1.358       .  A
C156        H162   1.081       .  S
C157        N158   1.355       .  A
C157        H159   1.082       .  S
N158        C160   1.358       .  A
N158        C360   1.438       .  S
C160        H161   1.082       .  S
C165        C166   1.535       .  S
C165        C171   1.545       .  S
C165        C169   1.533       .  S
C165        C331   1.529       .  S
C166        H173   1.086       .  S
C166        C167   1.368       .  D
C167        C168   1.542       .  S
C167        C811   1.484       .  S
C168        C172   1.539       .  S
C168        C170   1.538       .  S
C168        H174   1.108       .  S
C169        H175   1.087       .  S
C169        C170   1.362       .  D
C170        C391   1.490       .  S
C171        H176   1.081       .  S
C171        C172   1.360       .  D
C172        C351   1.471       .  S
C177        C178   1.539       .  S
C177        C183   1.537       .  S
C177        C181   1.546       .  S
C177        C291   1.546       .  S
C178        H185   1.086       .  S
C178        C179   1.370       .  D
C179        C180   1.554       .  S
C179        C511   1.503       .  S
C180        C184   1.553       .  S
C180        C182   1.542       .  S
C180        H186   1.110       .  S
C181        H187   1.080       .  S
C181        C182   1.361       .  D
C182        C371   1.485       .  S
C183        H188   1.086       .  S
C183        C184   1.367       .  D
C184        C311   1.499       .  S
C189        C191   1.532       .  S
C189        C193   1.541       .  S
C189        C192   1.577       .  S
C189        C631   1.539       .  S
C190        C194   1.535       .  S
C190        C196   1.533       .  S
C190        C195   1.558       .  S
C190        C340   1.535       .  S
C191        C199   1.379       .  A
C191        C194   1.379       .  A
C192        C203   1.400   1_554  A
C192        C195   1.422       .  A
C193        C207   1.388       .  A
C193        C196   1.379       .  A
C194        C197   1.381       .  A
C195        C201   1.383   1_554  A
C196        C204   1.383       .  A
C197        N198   1.357       .  A
C197        H210   1.082       .  S
N198        C199   1.356       .  A
N198        C471   1.440       .  S
C199        H200   1.083       .  S
C201        N202   1.355       .  A
C201        H211   1.080       .  S
N202        C203   1.365       .  A
N202        N225   1.417       .  S
C203        H209   1.079       .  S
C204        N205   1.358       .  A
C204        H206   1.083       .  S
N205        C207   1.360       .  A
N205        C871   1.447       .  S
C207        H208   1.082       .  S
C212        C214   1.561       .  S
C212        C216   1.553       .  S
C212        C215   1.559       .  S
C212        C300   1.548       .  S
C213        C217   1.532       .  S
C213        C219   1.548       .  S
C213        C218   1.530       .  S
C213        C580   1.535       .  S
C214        C222   1.392       .  A
C214        C217   1.392       .  A
C215        C226   1.400       .  A
C215        C218   1.394       .  A
C216        C230   1.392       .  A
C216        C219   1.407       .  A
C217        C220   1.377       .  A
C218        C224   1.376       .  A
C219        C227   1.387       .  A
C220        N221   1.352       .  A
C220        H233   1.081       .  S
N221        C222   1.358       .  A
N221        C420   1.440       .  S
C222        H223   1.079       .  S
C224        N225   1.354       .  A
C224        H234   1.082       .  S
N225        C226   1.369       .  A
C226        H232   1.082       .  S
C227        N228   1.350       .  A
C227        H229   1.080       .  S
N228        C230   1.353       .  A
N228        C751   1.441       .  S
C230        H231   1.082       .  S
N235        N236   1.323       .  A
N235        N241   1.315       .  A
N235       Mn264   2.221   1_455  S
N236        C243   1.357   1_556  A
N237        N239   1.312       .  A
N237        N238   1.318       .  A
N237       Mn253   2.193   1_545  S
N238        C244   1.353       .  A
N239        N240   1.317       .  A
N239       Mn264   2.186   1_455  S
N240        C244   1.354       .  A
N241        N242   1.321   1_556  A
N241       Mn253   2.207   1_545  S
N242        C243   1.355       .  A
C243        C851   1.497       .  S
C244        C560   1.480       .  S
N245        N251   1.316       .  A
N245        N246   1.321       .  A
N245       Mn275   2.213   1_455  S
N246        C254   1.354       .  A
N247        N248   1.322   1_556  A
N247        N249   1.313       .  A
N247       Mn253   2.201       .  S
N248        C255   1.356       .  A
N249        N250   1.314   1_556  A
N249       Mn275   2.180   1_455  S
N250        C255   1.351       .  A
N251        N252   1.322       .  A
N251       Mn253   2.204       .  S
N252        C254   1.354       .  A
Mn253      Cl277   2.549   1_455  S
C254        C731   1.478       .  S
C255        C320   1.481       .  S
N256        N257   1.321       .  A
N256        N262   1.315       .  A
N256       Mn264   2.209       .  S
N257        C265   1.355       .  A
N258        N260   1.315       .  A
N258        N259   1.318   1_556  A
N258       Mn276   2.195   1_545  S
N259        C266   1.352       .  A
N260        N261   1.317       .  A
N260       Mn264   2.181       .  S
N261        C266   1.350   1_556  A
N262        N263   1.317       .  A
N262       Mn276   2.184   1_545  S
N263        C265   1.350       .  A
Mn264      Cl277   2.541   1_545  S
C265        C411   1.474       .  S
C266        C600   1.468       .  S
N267        N268   1.323   1_556  A
N267        N273   1.314       .  A
N267       Mn275   2.215       .  S
N268        C278   1.357       .  A
N269        N270   1.320       .  A
N269        N271   1.313       .  A
N269       Mn276   2.200       .  S
N270        C279   1.354       .  A
N271        N272   1.319       .  A
N271       Mn275   2.191       .  S
N272        C279   1.352       .  A
N273        N274   1.318   1_556  A
N273       Mn276   2.189       .  S
N274        C278   1.352       .  A
Mn275      Cl277   2.540       .  S
Mn276      Cl277   2.542       .  S
C278        C451   1.482       .  S
C279        C280   1.477       .  S
C280        C281   1.411       .  A
C280        C285   1.404       .  A
C281        C282   1.399       .  A
C281       Br297   1.921       .  S
C282        C283   1.403       .  A
C282        H286   1.084       .  S
C283        C284   1.409       .  A
C283        C287   1.481       .  S
C284        C285   1.398       .  A
C284       Br296   1.920       .  S
C285        H288   1.083       .  S
C287        C289   1.396       .  A
C287        C293   1.404       .  A
C289        C290   1.398       .  A
C289        H294   1.084       .  S
C290        C291   1.422       .  A
C290       Br298   1.914       .  S
C291        C292   1.417       .  A
C292        C293   1.400       .  A
C292        H295   1.073       .  S
C293       Br299   1.922       .  S
C300        C301   1.418       .  A
C300        C305   1.407       .  A
C301        C302   1.407       .  A
C301       Br317   1.921       .  S
C302        C303   1.406       .  A
C302        H306   1.083       .  S
C303        C304   1.410       .  A
C303        C307   1.495       .  S
C304        C305   1.402       .  A
C304       Br316   1.920       .  S
C305        H308   1.079       .  S
C307        C309   1.402       .  A
C307        C313   1.413       .  A
C309        C310   1.402       .  A
C309        H314   1.083       .  S
C310        C311   1.415       .  A
C310       Br318   1.913       .  S
C311        C312   1.405       .  A
C312        C313   1.407       .  A
C312        H315   1.081       .  S
C313       Br319   1.919       .  S
C320        C321   1.416       .  A
C320        C325   1.408       .  A
C321        C322   1.400       .  A
C321       Br337   1.921       .  S
C322        C323   1.401       .  A
C322        H326   1.084       .  S
C323        C324   1.401       .  A
C323        C327   1.466       .  S
C324        C325   1.389       .  A
C324       Br336   1.921       .  S
C325        H328   1.083       .  S
C327        C329   1.396       .  A
C327        C333   1.400       .  A
C329        C330   1.397       .  A
C329        H334   1.084       .  S
C330        C331   1.425       .  A
C330       Br338   1.926       .  S
C331        C332   1.411       .  A
C332        C333   1.392       .  A
C332        H335   1.075       .  S
C333       Br339   1.920       .  S
C340        C341   1.418       .  A
C340        C345   1.414       .  A
C341        C342   1.410       .  A
C341       Br357   1.915   1_554  S
C342        C343   1.406       .  A
C342        H346   1.083       .  S
C343        C344   1.402       .  A
C343        C347   1.481       .  S
C344        C345   1.386       .  A
C344       Br356   1.924       .  S
C345        H348   1.083       .  S
C347        C349   1.404       .  A
C347        C353   1.412       .  A
C349        C350   1.402       .  A
C349        H354   1.083       .  S
C350        C351   1.410       .  A
C350       Br358   1.920       .  S
C351        C352   1.396       .  A
C352        C353   1.395       .  A
C352        H355   1.084       .  S
C353       Br359   1.921       .  S
C360        C361   1.407       .  A
C360        C365   1.402       .  A
C361        C362   1.402       .  A
C361       Br377   1.915       .  S
C362        C363   1.404       .  A
C362        H366   1.083       .  S
C363        C364   1.413       .  A
C363        C367   1.488       .  S
C364        C365   1.402       .  A
C364       Br376   1.920       .  S
C365        H368   1.083       .  S
C367        C369   1.403       .  A
C367        C373   1.411       .  A
C369        C370   1.400       .  A
C369        H374   1.084       .  S
C370        C371   1.410       .  A
C370       Br378   1.919       .  S
C371        C372   1.404       .  A
C372        C373   1.405       .  A
C372        H375   1.082       .  S
C373       Br379   1.918       .  S
C380        C381   1.408       .  A
C380        C385   1.404       .  A
C381        C382   1.402       .  A
C381       Br397   1.916       .  S
C382        C383   1.403       .  A
C382        H386   1.083       .  S
C383        C384   1.407       .  A
C383        C387   1.477       .  S
C384        C385   1.398       .  A
C384       Br396   1.919       .  S
C385        H388   1.083       .  S
C387        C389   1.400       .  A
C387        C393   1.405       .  A
C389        C390   1.401       .  A
C389        H394   1.084       .  S
C390        C391   1.415       .  A
C390       Br398   1.913       .  S
C391        C392   1.407       .  A
C392        C393   1.397       .  A
C392        H395   1.083       .  S
C393       Br399   1.917       .  S
C400        C401   1.423       .  A
C400        C405   1.411       .  A
C401        C402   1.393       .  A
C401       Br417   1.927       .  S
C402        C403   1.395       .  A
C402        H406   1.084       .  S
C403        C404   1.404       .  A
C403        C407   1.471       .  S
C404        C405   1.396       .  A
C404       Br416   1.920       .  S
C405        H408   1.076       .  S
C407        C409   1.400       .  A
C407        C413   1.405       .  A
C409        C410   1.396       .  A
C409        H414   1.084       .  S
C410        C411   1.413       .  A
C410       Br418   1.920       .  S
C411        C412   1.405       .  A
C412        C413   1.396       .  A
C412        H415   1.084       .  S
C413       Br419   1.920       .  S
C420        C421   1.411       .  A
C420        C425   1.404       .  A
C421        C422   1.404       .  A
C421       Br437   1.917       .  S
C422        C423   1.404       .  A
C422        H426   1.083       .  S
C423        C424   1.406       .  A
C423        C427   1.476       .  S
C424        C425   1.396       .  A
C424       Br436   1.920       .  S
C425        H428   1.083       .  S
C427        C429   1.398       .  A
C427        C433   1.409       .  A
C429        C430   1.393       .  A
C429        H434   1.084       .  S
C430        C431   1.412       .  A
C430       Br438   1.921       .  S
C431        C432   1.405       .  A
C432        C433   1.404       .  A
C432        H435   1.084       .  S
C433       Br439   1.917       .  S
C440        C441   1.424       .  A
C440        C445   1.415       .  A
C441        C442   1.401       .  A
C441       Br457   1.925       .  S
C442        C443   1.398       .  A
C442        H446   1.084       .  S
C443        C444   1.402       .  A
C443        C447   1.480       .  S
C444        C445   1.399       .  A
C444       Br456   1.919       .  S
C445        H448   1.075       .  S
C447        C449   1.400       .  A
C447        C453   1.408       .  A
C449        C450   1.399       .  A
C449        H454   1.084       .  S
C450        C451   1.414       .  A
C450       Br458   1.920       .  S
C451        C452   1.405       .  A
C452        C453   1.401       .  A
C452        H455   1.083       .  S
C453       Br459   1.918       .  S
C460        C461   1.412       .  A
C460        C465   1.407       .  A
C461        C462   1.398       .  A
C461       Br477   1.913       .  S
C462        C463   1.399       .  A
C462        H466   1.084       .  S
C463        C464   1.405       .  A
C463        C467   1.475       .  S
C464        C465   1.400       .  A
C464       Br476   1.918       .  S
C465        H468   1.083       .  S
C467        C469   1.400       .  A
C467        C473   1.406       .  A
C469        C470   1.399       .  A
C469        H474   1.084       .  S
C470        C471   1.413       .  A
C470       Br478   1.919       .  S
C471        C472   1.407       .  A
C472        C473   1.399       .  A
C472        H475   1.083       .  S
C473       Br479   1.918       .  S
C480        C481   1.408       .  A
C480        C485   1.406       .  A
C481        C482   1.401       .  A
C481       Br497   1.917       .  S
C482        C483   1.405       .  A
C482        H486   1.084       .  S
C483        C484   1.407       .  A
C483        C487   1.483       .  S
C484        C485   1.401       .  A
C484       Br496   1.918       .  S
C485        H488   1.083       .  S
C487        C489   1.395       .  A
C487        C493   1.404       .  A
C489        C490   1.398       .  A
C489        H494   1.086       .  S
C490        C491   1.431       .  A
C490       Br498   1.929       .  S
C491        C492   1.409       .  A
C492        C493   1.401       .  A
C492        H495   1.089       .  S
C493       Br499   1.917       .  S
C500        C501   1.432       .  A
C500        C505   1.409       .  A
C501        C502   1.392       .  A
C501       Br517   1.933       .  S
C502        C503   1.394       .  A
C502        H506   1.084       .  S
C503        C504   1.418       .  A
C503        C507   1.502       .  S
C504        C505   1.418       .  A
C504       Br516   1.916       .  S
C505        H508   1.080       .  S
C507        C509   1.404       .  A
C507        C513   1.418       .  A
C509        C510   1.407       .  A
C509        H514   1.083       .  S
C510        C511   1.417       .  A
C510       Br518   1.916       .  S
C511        C512   1.404       .  A
C512        C513   1.405       .  A
C512        H515   1.082       .  S
C513       Br519   1.922       .  S
C520        C521   1.415       .  A
C520        C525   1.413       .  A
C521        C522   1.392       .  A
C521       Br537   1.918       .  S
C522        C523   1.401       .  A
C522        H526   1.084       .  S
C523        C524   1.404       .  A
C523        C527   1.478       .  S
C524        C525   1.397       .  A
C524       Br536   1.919       .  S
C525        H528   1.082       .  S
C527        C529   1.396       .  A
C527        C533   1.406       .  A
C529        C530   1.390       .  A
C529        H534   1.085       .  S
C530        C531   1.424       .  A
C530       Br538   1.923       .  S
C531        C532   1.413       .  A
C532        C533   1.402       .  A
C532        H535   1.081       .  S
C533       Br539   1.920       .  S
C540        C541   1.416       .  A
C540        C545   1.409       .  A
C541        C542   1.403       .  A
C541       Br557   1.920       .  S
C542        C543   1.406       .  A
C542        H546   1.082       .  S
C543        C544   1.411       .  A
C543        C547   1.493       .  S
C544        C545   1.396       .  A
C544       Br556   1.923       .  S
C545        H548   1.081       .  S
C547        C549   1.405       .  A
C547        C553   1.409       .  A
C549        C550   1.399       .  A
C549        H554   1.083       .  S
C550        C551   1.418       .  A
C550       Br558   1.920       .  S
C551        C552   1.412       .  A
C552        C553   1.398       .  A
C552        H555   1.081       .  S
C553       Br559   1.921       .  S
C560        C561   1.418       .  A
C560        C565   1.408       .  A
C561        C562   1.397       .  A
C561       Br577   1.922       .  S
C562        C563   1.398       .  A
C562        H566   1.084       .  S
C563        C564   1.402       .  A
C563        C567   1.466       .  S
C564        C565   1.393       .  A
C564       Br576   1.919       .  S
C565        H568   1.083       .  S
C567        C569   1.392       .  A
C567        C573   1.402       .  A
C569        C570   1.394       .  A
C569        H574   1.084       .  S
C570        C571   1.426       .  A
C570       Br578   1.923       .  S
C571        C572   1.413       .  A
C572        C573   1.397       .  A
C572        H575   1.076       .  S
C573       Br579   1.920       .  S
C580        C581   1.417       .  A
C580        C585   1.407       .  A
C581        C582   1.398       .  A
C581       Br597   1.924       .  S
C582        C583   1.403       .  A
C582        H586   1.084       .  S
C583        C584   1.408       .  A
C583        C587   1.482       .  S
C584        C585   1.398       .  A
C584       Br596   1.919       .  S
C585        H588   1.079       .  S
C587        C589   1.402       .  A
C587        C593   1.411       .  A
C589        C590   1.400       .  A
C589        H594   1.083       .  S
C590        C591   1.416       .  A
C590       Br598   1.921       .  S
C591        C592   1.402       .  A
C592        C593   1.396       .  A
C592        H595   1.083       .  S
C593       Br599   1.922       .  S
C600        C601   1.413       .  A
C600        C605   1.402       .  A
C601        C602   1.395       .  A
C601       Br617   1.923   1_554  S
C602        C603   1.401       .  A
C602        H606   1.084       .  S
C603        C604   1.406       .  A
C603        C607   1.471       .  S
C604        C605   1.394       .  A
C604       Br616   1.919       .  S
C605        H608   1.083       .  S
C607        C609   1.396       .  A
C607        C613   1.401       .  A
C609        C610   1.396       .  A
C609        H614   1.084       .  S
C610        C611   1.424       .  A
C610       Br618   1.917       .  S
C611        C612   1.415       .  A
C612        C613   1.393       .  A
C612        H615   1.072       .  S
C613       Br619   1.922       .  S
C620        C621   1.415       .  A
C620        C625   1.402       .  A
C621        C622   1.398       .  A
C621       Br637   1.914       .  S
C622        C623   1.399       .  A
C622        H626   1.084       .  S
C623        C624   1.412       .  A
C623        C627   1.483       .  S
C624        C625   1.404       .  A
C624       Br636   1.918       .  S
C625        H628   1.083       .  S
C627        C629   1.390       .  A
C627        C633   1.410       .  A
C629        C630   1.389       .  A
C629        H634   1.084       .  S
C630        C631   1.434       .  A
C630       Br638   1.934       .  S
C631        C632   1.408       .  A
C632        C633   1.411       .  A
C632        H635   1.075       .  S
C633       Br639   1.916       .  S
C640        C641   1.415       .  A
C640        C645   1.404       .  A
C641        C642   1.403       .  A
C641       Br657   1.921       .  S
C642        C643   1.404       .  A
C642        H646   1.084       .  S
C643        C644   1.412       .  A
C643        C647   1.495       .  S
C644        C645   1.409       .  A
C644       Br656   1.915       .  S
C645        H648   1.083       .  S
C647        C649   1.408       .  A
C647        C653   1.400       .  A
C649        C650   1.418       .  A
C649        H654   1.083       .  S
C650        C651   1.424       .  A
C650       Br658   1.914       .  S
C651        C652   1.418       .  A
C652        C653   1.395       .  A
C652        H655   1.082       .  S
C653       Br659   1.921       .  S
C660        C661   1.423       .  A
C660        C665   1.415       .  A
C661        C662   1.406       .  A
C661       Br677   1.920       .  S
C662        C663   1.400       .  A
C662        H666   1.083       .  S
C663        C664   1.396       .  A
C663        C667   1.469       .  S
C664        C665   1.386       .  A
C664       Br676   1.924       .  S
C665        H668   1.077       .  S
C667        C669   1.402       .  A
C667        C673   1.405       .  A
C669        C670   1.398       .  A
C669        H674   1.084       .  S
C670        C671   1.408       .  A
C670       Br678   1.919       .  S
C671        C672   1.402       .  A
C672        C673   1.395       .  A
C672        H675   1.084       .  S
C673       Br679   1.918       .  S
C680        C681   1.407       .  A
C680        C685   1.403       .  A
C681        C682   1.400       .  A
C681       Br697   1.915       .  S
C682        C683   1.403       .  A
C682        H686   1.083       .  S
C683        C684   1.404       .  A
C683        C687   1.470       .  S
C684        C685   1.394       .  A
C684       Br696   1.919       .  S
C685        H688   1.083       .  S
C687        C689   1.403       .  A
C687        C693   1.403       .  A
C689        C690   1.399       .  A
C689        H694   1.083       .  S
C690        C691   1.407       .  A
C690       Br698   1.919       .  S
C691        C692   1.404       .  A
C692        C693   1.394       .  A
C692        H695   1.082       .  S
C693       Br699   1.918       .  S
C700        C701   1.407       .  A
C700        C705   1.405       .  A
C701        C702   1.400       .  A
C701       Br717   1.916       .  S
C702        C703   1.404       .  A
C702        H706   1.083       .  S
C703        C704   1.407       .  A
C703        C707   1.479       .  S
C704        C705   1.399       .  A
C704       Br716   1.917       .  S
C705        H708   1.083       .  S
C707        C709   1.402       .  A
C707        C713   1.404       .  A
C709        C710   1.404       .  A
C709        H714   1.084       .  S
C710        C711   1.414       .  A
C710       Br718   1.915       .  S
C711        C712   1.407       .  A
C712        C713   1.398       .  A
C712        H715   1.083       .  S
C713       Br719   1.918       .  S
C720        C721   1.425       .  A
C720        C725   1.415       .  A
C721        C722   1.403       .  A
C721       Br737   1.924       .  S
C722        C723   1.399       .  A
C722        H726   1.084       .  S
C723        C724   1.404       .  A
C723        C727   1.484       .  S
C724        C725   1.399       .  A
C724       Br736   1.921       .  S
C725        H728   1.074       .  S
C727        C729   1.404       .  A
C727        C733   1.409       .  A
C729        C730   1.402       .  A
C729        H734   1.084       .  S
C730        C731   1.411       .  A
C730       Br738   1.920       .  S
C731        C732   1.403       .  A
C732        C733   1.399       .  A
C732        H735   1.083       .  S
C733       Br739   1.918       .  S
C740        C741   1.411       .  A
C740        C745   1.403       .  A
C741        C742   1.401       .  A
C741       Br757   1.921       .  S
C742        C743   1.404       .  A
C742        H746   1.084       .  S
C743        C744   1.409       .  A
C743        C747   1.486       .  S
C744        C745   1.401       .  A
C744       Br756   1.919       .  S
C745        H748   1.079       .  S
C747        C749   1.404       .  A
C747        C753   1.411       .  A
C749        C750   1.402       .  A
C749        H754   1.083       .  S
C750        C751   1.410       .  A
C750       Br758   1.918       .  S
C751        C752   1.403       .  A
C752        C753   1.402       .  A
C752        H755   1.083       .  S
C753       Br759   1.920       .  S
C760        C761   1.418       .  A
C760        C765   1.405       .  A
C761        C762   1.409       .  A
C761       Br777   1.922       .  S
C762        C763   1.407       .  A
C762        H766   1.083       .  S
C763        C764   1.406       .  A
C763        C767   1.490       .  S
C764        C765   1.397       .  A
C764       Br776   1.920       .  S
C765        H768   1.075       .  S
C767        C769   1.404       .  A
C767        C773   1.409       .  A
C769        C770   1.403       .  A
C769        H774   1.084       .  S
C770        C771   1.417       .  A
C770       Br778   1.920       .  S
C771        C772   1.405       .  A
C772        C773   1.402       .  A
C772        H775   1.078       .  S
C773       Br779   1.920       .  S
C780        C781   1.421       .  A
C780        C785   1.409       .  A
C781        C782   1.399       .  A
C781       Br797   1.918       .  S
C782        C783   1.403       .  A
C782        H786   1.083       .  S
C783        C784   1.408       .  A
C783        C787   1.489       .  S
C784        C785   1.395       .  A
C784       Br796   1.922       .  S
C785        H788   1.080       .  S
C787        C789   1.403       .  A
C787        C793   1.411       .  A
C789        C790   1.396       .  A
C789        H794   1.082       .  S
C790        C791   1.418       .  A
C790       Br798   1.923       .  S
C791        C792   1.411       .  A
C792        C793   1.398       .  A
C792        H795   1.079       .  S
C793       Br799   1.923       .  S
C800        C801   1.409       .  A
C800        C805   1.402       .  A
C801        C802   1.395       .  A
C801       Br817   1.917       .  S
C802        C803   1.400       .  A
C802        H806   1.084       .  S
C803        C804   1.404       .  A
C803        C807   1.464       .  S
C804        C805   1.395       .  A
C804       Br816   1.917       .  S
C805        H808   1.083       .  S
C807        C809   1.399       .  A
C807        C813   1.400       .  A
C809        C810   1.398       .  A
C809        H814   1.084       .  S
C810        C811   1.415       .  A
C810       Br818   1.917       .  S
C811        C812   1.408       .  A
C812        C813   1.391       .  A
C812        H815   1.082       .  S
C813       Br819   1.919       .  S
C820        C821   1.425       .  A
C820        C825   1.418       .  A
C821        C822   1.415       .  A
C821       Br837   1.919       .  S
C822        C823   1.406       .  A
C822        H826   1.083       .  S
C823        C824   1.397       .  A
C823        C827   1.491       .  S
C824        C825   1.394       .  A
C824       Br836   1.922       .  S
C825        H828   1.072       .  S
C827        C829   1.405       .  A
C827        C833   1.404       .  A
C829        C830   1.408       .  A
C829        H834   1.084       .  S
C830        C831   1.417       .  A
C830       Br838   1.916       .  S
C831        C832   1.412       .  A
C832        C833   1.403       .  A
C832        H835   1.083       .  S
C833       Br839   1.917       .  S
C840        C841   1.424       .  A
C840        C845   1.418       .  A
C841        C842   1.406       .  A
C841       Br857   1.920       .  S
C842        C843   1.401       .  A
C842        H846   1.083       .  S
C843        C844   1.401       .  A
C843        C847   1.486       .  S
C844        C845   1.398       .  A
C844       Br856   1.921       .  S
C845        H848   1.071       .  S
C847        C849   1.402       .  A
C847        C853   1.406       .  A
C849        C850   1.404       .  A
C849        H854   1.084       .  S
C850        C851   1.419       .  A
C850       Br858   1.920       .  S
C851        C852   1.410       .  A
C852        C853   1.401       .  A
C852        H855   1.083       .  S
C853       Br859   1.918       .  S
C860        C861   1.412       .  A
C860        C865   1.408       .  A
C861        C862   1.410       .  A
C861       Br877   1.916       .  S
C862        C863   1.407       .  A
C862        H866   1.083       .  S
C863        C864   1.407       .  A
C863        C867   1.490       .  S
C864        C865   1.398       .  A
C864       Br876   1.919       .  S
C865        H868   1.084       .  S
C867        C869   1.405       .  A
C867        C873   1.409       .  A
C869        C870   1.406       .  A
C869        H874   1.083       .  S
C870        C871   1.411       .  A
C870       Br878   1.917       .  S
C871        C872   1.407       .  A
C872        C873   1.404       .  A
C872        H875   1.083       .  S
C873       Br879   1.918       .  S
C880        C881   1.414       .  A
C880        C885   1.408       .  A
C881        C882   1.406       .  A
C881       Br897   1.917       .  S
C882        C883   1.404       .  A
C882        H886   1.083       .  S
C883        C884   1.407       .  A
C883        C887   1.487       .  S
C884        C885   1.401       .  A
C884       Br896   1.918       .  S
C885        H888   1.083       .  S
C887        C889   1.404       .  A
C887        C893   1.398       .  A
C889        C890   1.413       .  A
C889        H894   1.083       .  S
C890        C891   1.426       .  A
C890       Br898   1.917       .  S
C891        C892   1.417       .  A
C892        C893   1.392       .  A
C892        H895   1.077       .  S
C893       Br899   1.922       .  S
C900        C901   1.416       .  A
C900        C905   1.403       .  A
C901        C902   1.405       .  A
C901       Br917   1.917       .  S
C902        C903   1.403       .  A
C902        H906   1.083       .  S
C903        C904   1.413       .  A
C903        C907   1.493       .  S
C904        C905   1.403       .  A
C904       Br916   1.920       .  S
C905        H908   1.083       .  S
C907        C909   1.406       .  A
C907        C913   1.409       .  A
C909        C910   1.408       .  A
C909        H914   1.083       .  S
C910        C911   1.419       .  A
C910       Br918   1.923       .  S
C911        C912   1.406       .  A
C912        C913   1.400       .  A
C912        H915   1.076       .  S
C913       Br919   1.920       .  S
