geometry optimzed in LAMMPS
_audit_creation_date              2020-12-01 
_audit_creation_method            'lammps2cif' 
_symmetry_space_group_name_H-M    'P1' 
_symmetry_Int_Tables_number       1 
_symmetry_cell_setting            triclinic 
loop_ 
_symmetry_equiv_pos_as_xyz 
  x,y,z 
_cell_length_a                    40.10615997 
_cell_length_b                    40.12464377333077 
_cell_length_c                    33.14439035484655 
_cell_angle_alpha                 90.47702861538615 
_cell_angle_beta                  90.4891029464044 
_cell_angle_gamma                 124.76380198203063 
loop_ 
_atom_site_label 
_atom_site_type_symbol 
_atom_site_fract_x 
_atom_site_fract_y 
_atom_site_fract_z 
_atom_site_charge 
C1          C  0.58245073  0.92329169  0.46008142     0.05000
C2          C  0.58596169  0.89043823  0.46119692    -0.11200
C3          C  0.57864038  0.86984938  0.99806421     0.02500
C4          C  0.56793788  0.88328523  0.03221187    -0.09700
C5          C  0.57015081  0.91941371  0.03124280     0.05000
C6          C  0.57463550  0.93673590  0.49512454    -0.09100
H7          H  0.59350448  0.88187581  0.43357084     0.10600
H8          H  0.55725827  0.86580124  0.05949391     0.08100
H9          H  0.57234182  0.96241683  0.49411703     0.07900
C10         C  0.35493777  0.95729927  0.47412127     0.05000
C11         C  0.37330503  0.97249480  0.00510849    -0.11200
C12         C  0.35017062  0.95538044  0.03980275     0.02500
C13         C  0.31117927  0.91947940  0.03679722    -0.09700
C14         C  0.29543422  0.89825386  0.99961717     0.05000
C15         C  0.31740867  0.91940841  0.47204529    -0.09100
H16         H  0.40332181  0.00061253  0.00738964     0.10600
H17         H  0.29371841  0.90855451  0.06401720     0.08100
H18         H  0.30760936  0.90434919  0.44288755     0.07900
O19         O  0.54547268  0.04818727  0.33727589    -0.78300
O20         O  0.59368596  0.11072278  0.17479009    -0.78300
O21         O  0.54979164  0.01790147  0.20600171    -0.78300
O22         O  0.62383519  0.16963624  0.28608724    -0.78300
O23         O  0.52647157  0.04099335  0.16229787    -0.78400
O24         O  0.60776629  0.11418676  0.31340933    -0.78300
O25         O  0.61661292  0.16700371  0.20648888    -0.78300
O26         O  0.55896788  0.02143681  0.28756587    -0.78300
C27         C  0.55776037  0.02697084  0.32479679     1.11400
C28         C  0.62104279  0.14745036  0.17994018     1.11300
C29         C  0.54050852  0.02024841  0.17026733     1.11400
C30         C  0.63356628  0.15071351  0.30745160     1.11300
O31         O  0.55108332  0.12060394  0.35204227    -0.78300
O32         O  0.48246681  0.06407884  0.21259463    -0.78400
O33         O  0.48047544  0.00761956  0.29677822    -0.78300
O34         O  0.53295448  0.14363570  0.20889046    -0.78300
O35         O  0.52885957  0.11181394  0.15150107    -0.78300
O36         O  0.49111713  0.06701436  0.30055529    -0.78300
O37         O  0.54059118  0.14554656  0.29718776    -0.78300
O38         O  0.47171216  0.00454182  0.21423653    -0.78300
Co39       Co  0.55064161  0.09320609  0.30468362     1.51500
Co40       Co  0.53929604  0.08935339  0.19590832     1.51700
Co41       Co  0.51808852  0.01777445  0.25098958     1.51600
Co42       Co  0.57489673  0.14701351  0.24962195     1.51500
O43         O  0.55414522  0.08152694  0.24888717    -1.40200
C44         C  0.54146567  0.14277400  0.33609414     1.11300
C45         C  0.45958986  0.02661378  0.20558241     1.11400
C46         C  0.47011880  0.03018486  0.30962696     1.11400
C47         C  0.52497969  0.13701425  0.17045462     1.11300
C48         C  0.49994069  0.23846961  0.46945917     0.05000
C49         C  0.49724722  0.27176988  0.46678434    -0.12100
C50         C  0.50317710  0.29489636  0.00040772     0.02500
C51         C  0.49483107  0.27331067  0.03693078    -0.09700
C52         C  0.49823029  0.24035804  0.03930436     0.05000
C53         C  0.50321475  0.22536265  0.50699480    -0.09100
H54         H  0.49322864  0.27961272  0.43698911     0.10600
H55         H  0.48556983  0.28157631  0.06355198     0.08100
H56         H  0.50510131  0.19947548  0.50889581     0.07900
C57         C  0.76627886  0.23376779  0.45508972     0.05000
C58         C  0.74338903  0.21696788  0.48989670    -0.11200
C59         C  0.75918370  0.24093884  0.03542432     0.02500
C60         C  0.79766183  0.27790789  0.03802341    -0.09700
C61         C  0.82232495  0.28975409  0.49533316     0.05000
C62         C  0.80586060  0.26903930  0.45792313    -0.09100
H63         H  0.71281020  0.18959365  0.48768672     0.10600
H64         H  0.80735133  0.29371428  0.06684206     0.08100
H65         H  0.82301297  0.28012883  0.43049337     0.07900
O66         O  0.07841209  0.65165285  0.31549940    -0.78300
O67         O  0.01039986  0.56967133  0.16176094    -0.78300
O68         O  0.13343209  0.66580877  0.20805637    -0.78300
O69         O  0.98557515  0.59916423  0.28627019    -0.78300
O70         O  0.07621932  0.63969282  0.17699307    -0.78400
O71         O  0.01308198  0.58727453  0.33675195    -0.78300
O72         O  0.98448625  0.59077395  0.20437576    -0.78300
O73         O  0.13517844  0.67222582  0.28804627    -0.78300
C74         C  0.11467794  0.67918452  0.31033121     1.11400
C75         C  0.98717061  0.58093075  0.16901223     1.11300
C76         C  0.11235247  0.66858183  0.18192311     1.11400
C77         C  0.99102095  0.59839443  0.32366298     1.11300
O78         O  0.03686737  0.53644033  0.30094418    -0.78300
O79         O  0.08538160  0.58025178  0.15268347    -0.78400
O80         O  0.11632268  0.59128528  0.29893454    -0.78300
O81         O  0.97630027  0.51493508  0.21347703    -0.78300
O82         O  0.03766668  0.52973750  0.21197195    -0.78300
O83         O  0.08747364  0.59709855  0.35345301    -0.78300
O84         O  0.97624585  0.52294316  0.29529213    -0.78300
O85         O  0.11638245  0.58476407  0.21073707    -0.78300
Co86       Co  0.06016844  0.59534779  0.30565148     1.51500
Co87       Co  0.05920797  0.58623303  0.19670362     1.51700
Co88       Co  0.11582534  0.62438036  0.25124000     1.51600
Co89       Co  0.98548012  0.56009722  0.24981056     1.51500
O90         O  0.04902546  0.59884426  0.24967341    -1.40200
C91         C  0.99957408  0.51358671  0.30817415     1.11300
C92         C  0.11187579  0.57865139  0.17200431     1.11400
C93         C  0.11302956  0.59189807  0.33780162     1.11400
C94         C  0.00025347  0.50491857  0.20527655     1.11300
C95         C  0.21551859  0.55919040  0.47207787     0.05000
C96         C  0.19689484  0.55305730  0.50905217    -0.11200
C97         C  0.21078692  0.54465729  0.03975519     0.02500
C98         C  0.24538530  0.54408015  0.03725869    -0.09700
C99         C  0.25807318  0.53816906  0.99958445     0.05000
C100        C  0.24848284  0.55612796  0.46874020    -0.09100
H101        H  0.17190085  0.55629956  0.51162539     0.10600
H102        H  0.26238012  0.54918420  0.06477302     0.08100
H103        H  0.26331185  0.56320522  0.43996680     0.07900
C104        C  0.91940136  0.39159502  0.46609955     0.05000
C105        C  0.93822110  0.40721010  0.50389402    -0.11200
C106        C  0.92290298  0.38770479  0.04539926     0.02500
C107        C  0.88527699  0.34989660  0.04314600    -0.09700
C108        C  0.86344785  0.32983977  0.49801064     0.05000
C109        C  0.88188463  0.35375818  0.46340472    -0.09100
H110        H  0.96640697  0.43715715  0.50625842     0.10600
H111        H  0.87308660  0.33310757  0.07068853     0.08100
H112        H  0.86717067  0.34401046  0.43409060     0.07900
C113        C  0.88441695  0.61633528  0.46049537     0.05000
C114        C  0.85080726  0.61865677  0.46183789    -0.11200
C115        C  0.82785441  0.60878264  0.49755048     0.02500
C116        C  0.84166738  0.59618199  0.03180155    -0.09700
C117        C  0.87597898  0.59511623  0.02987494     0.05000
C118        C  0.89670517  0.60611440  0.49477093    -0.09100
H119        H  0.84309428  0.62815856  0.43501448     0.10600
H120        H  0.82522771  0.58748548  0.05972928     0.08100
H121        H  0.92307089  0.60493052  0.49366236     0.07900
C122        C  0.19634444  0.80507118  0.46420653     0.05000
C123        C  0.23245538  0.84400039  0.46707802    -0.11200
C124        C  0.25448497  0.85797019  0.99735171     0.02500
C125        C  0.23595564  0.83490773  0.03248024    -0.09700
C126        C  0.19798879  0.79754263  0.03046523     0.05000
C127        C  0.17878179  0.78143950  0.99306501    -0.09100
H128        H  0.24384883  0.86107353  0.43962336     0.10600
H129        H  0.25088371  0.84484618  0.06164593     0.08100
H130        H  0.15021820  0.75174101  0.99129023     0.07900
O131        O  0.55142721  0.55066074  0.16106337    -0.78300
O132        O  0.46854761  0.54708772  0.29057572    -0.78300
O133        O  0.56192990  0.50459332  0.27144372    -0.78300
O134        O  0.47355597  0.55443178  0.21190364    -0.78300
O135        O  0.51012152  0.50645480  0.29070803    -0.78400
O136        O  0.51268073  0.58773044  0.16100637    -0.78300
O137        O  0.46622201  0.59843462  0.27062620    -0.78300
O138        O  0.51820358  0.51122364  0.21179273    -0.78300
C139        C  0.52643259  0.51557623  0.17471046     1.11400
C140        C  0.45256776  0.56740256  0.29248282     1.11300
C141        C  0.53090067  0.49100329  0.29333919     1.11400
C142        C  0.47773303  0.56211690  0.17471212     1.11300
O143        O  0.58407809  0.66083422  0.19486432    -0.78300
O144        O  0.57698994  0.57762110  0.33278429    -0.78400
O145        O  0.60608588  0.56087450  0.20817553    -0.78300
O146        O  0.54818216  0.65093811  0.28088390    -0.78300
O147        O  0.53957708  0.61468912  0.33234803    -0.78300
O148        O  0.62371161  0.62238290  0.19482866    -0.78300
O149        O  0.52215540  0.64230216  0.20745555    -0.78300
O150        O  0.61375646  0.58656837  0.28166482    -0.78300
Co151      Co  0.56747790  0.60495345  0.18279195     1.51500
Co152      Co  0.52683423  0.56448803  0.30383389     1.51700
Co153      Co  0.56404198  0.54954283  0.24911271     1.51600
Co154      Co  0.51150914  0.60085823  0.24879132     1.51500
O155        O  0.55424080  0.59174643  0.24370915    -1.40200
C156        C  0.55697377  0.66759153  0.19295495     1.11300
C157        C  0.61075755  0.58887711  0.31883874     1.11400
C158        C  0.63096650  0.59560788  0.19327374     1.11400
C159        C  0.55069809  0.64829115  0.31807483     1.11300
C160        C  0.50008247  0.38647622  0.02885185     0.05000
C161        C  0.50289185  0.35318629  0.03207828    -0.11200
C162        C  0.49888887  0.33134161  0.49880772     0.02500
C163        C  0.50214931  0.34924960  0.46094185    -0.09700
C164        C  0.50047789  0.38310375  0.45760793     0.05000
C165        C  0.49622952  0.39880053  0.99073273    -0.09100
H166        H  0.50780971  0.34557129  0.06172295     0.10600
H167        H  0.50666818  0.33793256  0.43342166     0.08100
H168        H  0.49528642  0.42518103  0.98809764     0.07900
C169        C  0.34995618  0.53516827  0.02803304     0.05000
C170        C  0.36762948  0.54049234  0.99031851    -0.11200
C171        C  0.34412730  0.53583400  0.45534516     0.02500
C172        C  0.30966166  0.53632530  0.45966524    -0.09700
C173        C  0.29738093  0.54092575  0.49812976     0.05000
C174        C  0.31380865  0.53308962  0.03097183    -0.09100
H175        H  0.39520446  0.54161587  0.98784559     0.10600
H176        H  0.29298626  0.53333578  0.43254771     0.08100
H177        H  0.30017654  0.52737604  0.06029027     0.07900
C178        C  0.74438868  0.61490117  0.04022803     0.05000
C179        C  0.77890770  0.61434589  0.03772587    -0.11200
C180        C  0.79116230  0.61040873  0.49942748     0.02500
C181        C  0.77017640  0.60896573  0.46402472    -0.09700
C182        C  0.73591522  0.61024305  0.46639915     0.05000
C183        C  0.72427742  0.61365187  0.00502607    -0.09100
H184        H  0.79464008  0.61717167  0.06553391     0.10600
H185        H  0.77959164  0.60617677  0.43447234     0.08100
H186        H  0.69774686  0.61443476  0.00705033     0.07900
C187        C  0.57902999  0.78122580  0.03931824     0.05000
C188        C  0.58105986  0.81714858  0.03714707    -0.11200
C189        C  0.58167879  0.83282909  0.49914172     0.02500
C190        C  0.57786524  0.81084312  0.46361682    -0.09700
C191        C  0.57906506  0.77656836  0.46539857     0.05000
C192        C  0.57613937  0.76048071  0.00393177    -0.09100
H193        H  0.58524498  0.83333081  0.06505025     0.10600
H194        H  0.57318072  0.81938121  0.43440029     0.08100
H195        H  0.57514343  0.73294160  0.00568776     0.07900
C196        C  0.35918585  0.53637347  0.41559589    -0.16700
C197        C  0.37481758  0.53978914  0.38339921     0.07400
C198        C  0.39694104  0.54667981  0.34757335     0.09300
C199        C  0.41972514  0.55483482  0.31983422    -0.17500
C200        C  0.37011082  0.53325385  0.06368961    -0.16700
C201        C  0.39020565  0.53417503  0.09181902     0.07400
C202        C  0.41704739  0.53846801  0.12308690     0.09300
C203        C  0.44286507  0.54605507  0.14806281    -0.17500
C204        C  0.56309454  0.68218563  0.34473039    -0.16700
C205        C  0.56939276  0.70762032  0.36942195     0.07400
C206        C  0.57373854  0.73432152  0.40061806     0.09300
C207        C  0.57624693  0.75476601  0.42907477    -0.17500
C208        C  0.57837956  0.76469163  0.07805307    -0.16700
C209        C  0.57547385  0.74810425  0.10935679     0.07400
C210        C  0.56996203  0.72473476  0.14358999     0.09300
C211        C  0.56419105  0.70084717  0.16920786    -0.17500
C212        C  0.64434535  0.60087952  0.34587366    -0.16700
C213        C  0.66928522  0.60627290  0.37079363     0.07400
C214        C  0.69526624  0.60902895  0.40201373     0.09300
C215        C  0.71502845  0.60982066  0.43030288    -0.17500
C216        C  0.66427202  0.60289328  0.16944230    -0.16700
C217        C  0.68812602  0.60810806  0.14397992     0.07400
C218        C  0.71161355  0.61273038  0.11009335     0.09300
C219        C  0.72828507  0.61495566  0.07903242    -0.17500
C220        C  0.50321978  0.40024908  0.41838721    -0.16700
C221        C  0.50639748  0.41592989  0.38624821     0.07400
C222        C  0.51202741  0.43719499  0.35003791     0.09300
C223        C  0.51911824  0.45907426  0.32169558    -0.17500
C224        C  0.51206401  0.48097700  0.14821068    -0.16700
C225        C  0.50613418  0.45573198  0.12333131     0.07400
C226        C  0.50312215  0.42934892  0.09230053     0.09300
C227        C  0.50176539  0.40882896  0.06439820    -0.17500
C228        C  0.96171561  0.58046685  0.13803156    -0.16700
C229        C  0.93814227  0.58038866  0.11514417     0.07400
C230        C  0.91117368  0.58212339  0.08904384     0.09300
C231        C  0.89161572  0.58626535  0.06433260    -0.17500
C232        C  0.97058023  0.60875153  0.35095960    -0.16700
C233        C  0.95099808  0.61582644  0.37220268     0.07400
C234        C  0.92657632  0.62113954  0.39812622     0.09300
C235        C  0.90596823  0.62175118  0.42397110    -0.17500
C236        C  0.94198339  0.40505674  0.08432502    -0.16700
C237        C  0.95657284  0.42171294  0.11658722     0.07400
C238        C  0.97269184  0.44504053  0.15278067     0.09300
C239        C  0.98579524  0.46953185  0.18029732    -0.17500
C240        C  0.98441580  0.48123069  0.33672030    -0.16700
C241        C  0.97029466  0.45800734  0.36462266     0.07400
C242        C  0.95302443  0.43400195  0.39953424     0.09300
C243        C  0.93796780  0.41475079  0.42991756    -0.17500
C244        C  0.19698373  0.55039377  0.07751676    -0.16700
C245        C  0.18003652  0.55515138  0.10454666     0.07400
C246        C  0.15659603  0.56125842  0.13123815     0.09300
C247        C  0.13572682  0.56786500  0.15095675    -0.17500
C248        C  0.13686392  0.58402313  0.36332439    -0.16700
C249        C  0.15786531  0.57901302  0.38510448     0.07400
C250        C  0.18173280  0.57354111  0.41217733     0.09300
C251        C  0.19955550  0.56795411  0.43776176    -0.17500
C252        C  0.13039592  0.70268733  0.15537436    -0.16700
C253        C  0.14582568  0.72797429  0.12941029     0.07400
C254        C  0.16402149  0.75430897  0.09629552     0.09300
C255        C  0.17954722  0.77471998  0.06672394    -0.17500
C256        C  0.13339332  0.71623704  0.33356499    -0.16700
C257        C  0.14817132  0.74273213  0.35913601     0.07400
C258        C  0.16465985  0.76860299  0.39357740     0.09300
C259        C  0.17870407  0.78695631  0.42515562    -0.17500
C260        C  0.73421482  0.22352042  0.07076741    -0.16700
C261        C  0.71138677  0.20687498  0.09866055     0.07400
C262        C  0.68240135  0.18592558  0.12942313     0.09300
C263        C  0.65565356  0.16788124  0.15379596    -0.17500
C264        C  0.67195901  0.17113231  0.32850586    -0.16700
C265        C  0.70002354  0.18634548  0.35232460     0.07400
C266        C  0.72784674  0.20282191  0.38524820     0.09300
C267        C  0.74750915  0.21666487  0.41615794    -0.17500
C268        C  0.49366828  0.21983199  0.07658551    -0.16700
C269        C  0.49470976  0.20006108  0.10326721     0.07400
C270        C  0.50091320  0.17639639  0.12968973     0.09300
C271        C  0.50994508  0.15730588  0.14933883    -0.17500
C272        C  0.52802784  0.16231683  0.36116299    -0.16700
C273        C  0.51788789  0.17970653  0.38225478     0.07400
C274        C  0.50804289  0.20078514  0.40859929     0.09300
C275        C  0.50232713  0.21866089  0.43408492    -0.17500
C276        C  0.36699086  0.97306046  0.07918348    -0.16700
C277        C  0.38173174  0.98531089  0.11250102     0.07400
C278        C  0.40224737  0.99869890  0.15029907     0.09300
C279        C  0.42492719  0.01078911  0.17923927    -0.17500
C280        C  0.37776457  0.97535865  0.43752265    -0.16700
C281        C  0.39613544  0.98893041  0.40633871     0.07400
C282        C  0.41834912  0.00359437  0.36992272     0.09300
C283        C  0.43960778  0.01562825  0.34037311    -0.17500
C284        C  0.54443193  0.99746449  0.13941272    -0.16700
C285        C  0.54835057  0.97644456  0.11653399     0.07400
C286        C  0.55406519  0.95224168  0.09032491     0.09300
C287        C  0.56039665  0.93437859  0.06556143    -0.17500
C288        C  0.58461112  0.94317145  0.42332847    -0.16700
C289        C  0.58229228  0.96318492  0.39802567     0.07400
C290        C  0.57604053  0.98757123  0.37311940     0.09300
C291        C  0.56858622  0.00717461  0.35241277    -0.17500
C292        C  0.59019862  0.92836758  0.96160313     0.05000
C293        C  0.58980698  0.89318058  0.96254631    -0.11200
C294        C  0.57973304  0.86935877  0.49766580     0.02500
C295        C  0.57072472  0.88330527  0.53271620    -0.09700
C296        C  0.56910765  0.91724766  0.53132366     0.05000
C297        C  0.58126880  0.94166513  0.99606956    -0.09100
H298        H  0.59816916  0.88446811  0.93556762     0.10600
H299        H  0.56414836  0.86790634  0.56111156     0.08100
H300        H  0.58181139  0.96902072  0.99515832     0.07900
C301        C  0.35780737  0.95318439  0.96750560     0.05000
C302        C  0.37064896  0.97669051  0.51168345    -0.11200
C303        C  0.34854033  0.95878121  0.54686116     0.02500
C304        C  0.31003469  0.92196821  0.54426966    -0.09700
C305        C  0.29382965  0.90104389  0.50692822     0.05000
C306        C  0.31974810  0.91578887  0.96502103    -0.09100
H307        H  0.40032856  0.00523365  0.51363246     0.10600
H308        H  0.29333473  0.90998238  0.57187105     0.08100
H309        H  0.30996016  0.90070599  0.93589798     0.07900
O310        O  0.55458960  0.05115946  0.83716769    -0.78300
O311        O  0.60284264  0.11282395  0.67555164    -0.78300
O312        O  0.55719768  0.02112971  0.70544545    -0.78300
O313        O  0.63601521  0.17255415  0.78675396    -0.78300
O314        O  0.53441538  0.04519576  0.66237482    -0.78400
O315        O  0.61777774  0.11630868  0.81371768    -0.78300
O316        O  0.62824661  0.16987119  0.70665254    -0.78300
O317        O  0.56658425  0.02360671  0.78692574    -0.78300
C318        C  0.56656320  0.02981687  0.82423398     1.11400
C319        C  0.63106255  0.14927532  0.68001757     1.11300
C320        C  0.54758622  0.02362459  0.66993801     1.11400
C321        C  0.64435172  0.15281943  0.80861546     1.11300
O322        O  0.56321196  0.12498187  0.85285521    -0.78300
O323        O  0.49258890  0.07056817  0.71282468    -0.78400
O324        O  0.48938248  0.01229963  0.79653354    -0.78300
O325        O  0.54617650  0.15002538  0.71022434    -0.78300
O326        O  0.54079400  0.11823696  0.65239495    -0.78300
O327        O  0.50172275  0.07246866  0.80181059    -0.78300
O328        O  0.55423924  0.15139022  0.79825366    -0.78300
O329        O  0.47999959  0.01017410  0.71445393    -0.78300
Co330      Co  0.56099092  0.09699869  0.80526722     1.51500
Co331      Co  0.54920593  0.09390058  0.69650990     1.51700
Co332      Co  0.52626082  0.02162087  0.75072343     1.51600
Co333      Co  0.58732415  0.15150646  0.75034788     1.51500
O334        O  0.56361582  0.08519874  0.74930587    -1.40200
C335        C  0.55607140  0.14912117  0.83711637     1.11300
C336        C  0.46867948  0.03306189  0.70620827     1.11400
C337        C  0.47957371  0.03524985  0.80945508     1.11400
C338        C  0.53893577  0.14460692  0.67165230     1.11300
C339        C  0.51638713  0.24789628  0.96896737     0.05000
C340        C  0.51473225  0.28181932  0.96663927    -0.12100
C341        C  0.49996270  0.29404310  0.50187144     0.02500
C342        C  0.50440829  0.28028861  0.53972001    -0.09700
C343        C  0.50524420  0.24577224  0.54205557     0.05000
C344        C  0.50836718  0.22761420  0.00521361    -0.09100
H345        H  0.52304966  0.29789652  0.93850035     0.10600
H346        H  0.50787289  0.29608707  0.56759742     0.08100
H347        H  0.51057490  0.20192520  0.00705455     0.07900
C348        C  0.76791513  0.23703464  0.96360763     0.05000
C349        C  0.74428712  0.22094105  0.99808956    -0.11200
C350        C  0.75940767  0.23591595  0.52740275     0.02500
C351        C  0.79804735  0.27246882  0.52997282    -0.09700
C352        C  0.82258801  0.29441197  0.00366428     0.05000
C353        C  0.80713685  0.27270294  0.96661374    -0.09100
H354        H  0.71400298  0.19316596  0.99574714     0.10600
H355        H  0.80809578  0.28739029  0.55914418     0.08100
H356        H  0.82505197  0.28321478  0.93960159     0.07900
O357        O  0.07560406  0.64402186  0.81559008    -0.78300
O358        O  0.00500451  0.56420311  0.66116741    -0.78300
O359        O  0.12940906  0.65597585  0.70747770    -0.78300
O360        O  0.98262502  0.59458604  0.78602507    -0.78300
O361        O  0.07281815  0.63222454  0.67607009    -0.78400
O362        O  0.00896407  0.58092741  0.83613313    -0.78300
O363        O  0.98058612  0.58640554  0.70445029    -0.78300
O364        O  0.13132131  0.66253874  0.78701412    -0.78300
C365        C  0.11190249  0.67077580  0.80944961     1.11400
C366        C  0.98309234  0.57696513  0.66885526     1.11300
C367        C  0.10925098  0.66019287  0.68143407     1.11400
C368        C  0.98814703  0.59356066  0.82329526     1.11300
O369        O  0.02969099  0.52806303  0.79882980    -0.78300
O370        O  0.07798626  0.56989141  0.65198354    -0.78400
O371        O  0.10903503  0.57983571  0.79801288    -0.78300
O372        O  0.96864514  0.50882935  0.71228238    -0.78300
O373        O  0.02880226  0.52088034  0.71115112    -0.78300
O374        O  0.08099931  0.58634806  0.85276274    -0.78300
O375        O  0.96997470  0.51670637  0.79474561    -0.78300
O376        O  0.10797618  0.57292529  0.71025409    -0.78300
Co377      Co  0.05512177  0.58720843  0.80482350     1.51500
Co378      Co  0.05310573  0.57797885  0.69590696     1.51700
Co379      Co  0.11003813  0.61408973  0.75051942     1.51600
Co380      Co  0.98031546  0.55456204  0.74936384     1.51500
O381        O  0.04410466  0.59167412  0.74898082    -1.40200
C382        C  0.99274618  0.50656007  0.80742363     1.11300
C383        C  0.10317041  0.56641564  0.67160949     1.11400
C384        C  0.10448082  0.57842780  0.83680229     1.11400
C385        C  0.99141898  0.49751703  0.70356385     1.11300
C386        C  0.20147005  0.53632102  0.96736753     0.05000
C387        C  0.18932883  0.54107188  0.00488857    -0.11200
C388        C  0.21012644  0.54296168  0.54279050     0.02500
C389        C  0.24195976  0.53794667  0.53941869    -0.09700
C390        C  0.26214424  0.54480977  0.50219155     0.05000
C391        C  0.23477379  0.53358833  0.96466176    -0.09100
H392        H  0.16347066  0.54301052  0.00688793     0.10600
H393        H  0.25040291  0.52862205  0.56584837     0.08100
H394        H  0.24210079  0.52828011  0.93510271     0.07900
C395        C  0.92060621  0.39436567  0.97283349     0.05000
C396        C  0.94074839  0.40965312  0.01013189    -0.11200
C397        C  0.92038991  0.38446305  0.53870311     0.02500
C398        C  0.88413205  0.34562746  0.53552296    -0.09700
C399        C  0.86384288  0.33426371  0.00601399     0.05000
C400        C  0.88210288  0.35758946  0.97107289    -0.09100
H401        H  0.96993759  0.43875220  0.01178646     0.10600
H402        H  0.87232872  0.32842076  0.56283001     0.08100
H403        H  0.86648986  0.34800299  0.94215832     0.07900
C404        C  0.88446130  0.61432937  0.96003759     0.05000
C405        C  0.85126364  0.61720046  0.96185623    -0.11200
C406        C  0.82888880  0.60787484  0.99785407     0.02500
C407        C  0.84040703  0.59699903  0.53160707    -0.09700
C408        C  0.87518167  0.59675017  0.53026293     0.05000
C409        C  0.89685980  0.60384379  0.99402271    -0.09100
H410        H  0.84349947  0.62687619  0.93519596     0.10600
H411        H  0.82343712  0.58752485  0.55920978     0.08100
H412        H  0.92293688  0.60220972  0.99247338     0.07900
C413        C  0.19690553  0.80295355  0.95781155     0.05000
C414        C  0.23374810  0.84137103  0.96002089    -0.11200
C415        C  0.25337026  0.86010677  0.50446680     0.02500
C416        C  0.23549335  0.83592446  0.53915010    -0.09700
C417        C  0.19816098  0.79779845  0.53655670     0.05000
C418        C  0.17896533  0.78234499  0.49899334    -0.09100
H419        H  0.24586681  0.85755253  0.93221081     0.10600
H420        H  0.25051372  0.84570007  0.56833631     0.08100
H421        H  0.15094742  0.75224221  0.49671053     0.07900
O422        O  0.55190822  0.54856461  0.66343594    -0.78300
O423        O  0.47002479  0.55040998  0.78911564    -0.78300
O424        O  0.55873091  0.50212554  0.77473501    -0.78300
O425        O  0.47674196  0.55762439  0.71106470    -0.78300
O426        O  0.50791231  0.50612152  0.79297406    -0.78400
O427        O  0.51734729  0.58961634  0.66076709    -0.78300
O428        O  0.47044594  0.60318488  0.76856980    -0.78300
O429        O  0.51695149  0.51045328  0.71431241    -0.78300
C430        C  0.52520458  0.51403610  0.67724346     1.11400
C431        C  0.45587473  0.57239763  0.79100270     1.11300
C432        C  0.52713165  0.48900733  0.79551460     1.11400
C433        C  0.48188711  0.56543202  0.67394985     1.11300
O434        O  0.58963749  0.66101004  0.69495694    -0.78300
O435        O  0.57593567  0.57684925  0.83496810    -0.78400
O436        O  0.60474854  0.55662814  0.71150970    -0.78300
O437        O  0.55215622  0.65300352  0.78111701    -0.78300
O438        O  0.54043135  0.61589000  0.83274143    -0.78300
O439        O  0.62549784  0.61896823  0.69797205    -0.78300
O440        O  0.52852852  0.64540615  0.70659643    -0.78300
O441        O  0.61283495  0.58392659  0.78461440    -0.78300
Co442      Co  0.57057191  0.60411597  0.68412962     1.51500
Co443      Co  0.52685810  0.56521618  0.80471235     1.51700
Co444      Co  0.56315517  0.54794419  0.75176189     1.51600
Co445      Co  0.51500523  0.60341014  0.74837794     1.51500
O446        O  0.55602112  0.59181880  0.74496326    -1.40200
C447        C  0.56371404  0.66935330  0.69221464     1.11300
C448        C  0.60961098  0.58701809  0.82160931     1.11400
C449        C  0.63084525  0.59089454  0.69646074     1.11400
C450        C  0.55289464  0.64984655  0.81847671     1.11300
C451        C  0.49491089  0.38495998  0.53035167     0.05000
C452        C  0.49500948  0.35001585  0.53347453    -0.11200
C453        C  0.50016835  0.33074273  0.99736043     0.02500
C454        C  0.49504641  0.34336884  0.95935219    -0.09700
C455        C  0.49420740  0.37770685  0.95595021     0.05000
C456        C  0.49717053  0.40098278  0.49233616    -0.09100
H457        H  0.49195375  0.33799077  0.56322502     0.10600
H458        H  0.49172111  0.32688122  0.93195338     0.08100
H459        H  0.49684142  0.42772873  0.48981297     0.07900
C460        C  0.35328460  0.54023443  0.52813368     0.05000
C461        C  0.36550323  0.53728517  0.48962329    -0.11200
C462        C  0.35008486  0.54464811  0.95580911     0.02500
C463        C  0.31523982  0.54457467  0.95907683    -0.09700
C464        C  0.29588851  0.53830179  0.99655472     0.05000
C465        C  0.32001467  0.54291358  0.53231816    -0.09100
H466        H  0.39200763  0.53662979  0.48630375     0.10600
H467        H  0.30413751  0.55012752  0.93197307     0.08100
H468        H  0.31275906  0.54736192  0.56232848     0.07900
C469        C  0.74089166  0.61194558  0.53944073     0.05000
C470        C  0.77622586  0.61287844  0.53705851    -0.11200
C471        C  0.79272386  0.61029752  0.00004796     0.02500
C472        C  0.77127034  0.60828728  0.96477008    -0.09700
C473        C  0.73781148  0.61084809  0.96726017     0.05000
C474        C  0.72109565  0.61112029  0.50415733    -0.09100
H475        H  0.79164095  0.61551429  0.56502467     0.10600
H476        H  0.77970670  0.60407071  0.93526388     0.08100
H477        H  0.69394267  0.61082722  0.50608836     0.07900
C478        C  0.58538528  0.78331750  0.53828015     0.05000
C479        C  0.58639249  0.81874796  0.53639628    -0.11200
C480        C  0.57795694  0.83190032  0.99968831     0.02500
C481        C  0.57425590  0.80991264  0.96421398    -0.09700
C482        C  0.57433262  0.77495923  0.96630636     0.05000
C483        C  0.58220702  0.76262601  0.50277713    -0.09100
H484        H  0.59073521  0.83478115  0.56440824     0.10600
H485        H  0.57093053  0.81932240  0.93486018     0.08100
H486        H  0.58179912  0.73539672  0.50426485     0.07900
C487        C  0.36797490  0.54911531  0.91678660    -0.16700
C488        C  0.38341578  0.55246637  0.88454446     0.07400
C489        C  0.40373306  0.55703800  0.84807354     0.09300
C490        C  0.42473438  0.56260354  0.81946902    -0.17500
C491        C  0.37588030  0.54150190  0.56317903    -0.16700
C492        C  0.39644683  0.54272948  0.59090889     0.07400
C493        C  0.42277448  0.54570074  0.62188795     0.09300
C494        C  0.44783629  0.55152495  0.64689656    -0.17500
C495        C  0.56432752  0.68340821  0.84531079    -0.16700
C496        C  0.56912062  0.70804181  0.87029583     0.07400
C497        C  0.57152258  0.73371942  0.90166226     0.09300
C498        C  0.57262395  0.75353082  0.93007092    -0.17500
C499        C  0.58559088  0.76684650  0.57682181    -0.16700
C500        C  0.58326065  0.75002217  0.60781056     0.07400
C501        C  0.57826066  0.72653277  0.64183184     0.09300
C502        C  0.57239153  0.70273622  0.66764432    -0.17500
C503        C  0.64293842  0.59893411  0.84899111    -0.16700
C504        C  0.66842980  0.60476008  0.87341614     0.07400
C505        C  0.69555332  0.60825557  0.90371272     0.09300
C506        C  0.71625571  0.60968765  0.93139090    -0.17500
C507        C  0.66281242  0.59620523  0.67184968    -0.16700
C508        C  0.68547809  0.60110973  0.64520976     0.07400
C509        C  0.70770276  0.60654433  0.61002797     0.09300
C510        C  0.72393308  0.61007836  0.57829773    -0.17500
C511        C  0.49373537  0.39294008  0.91660259    -0.16700
C512        C  0.49665086  0.40897516  0.88479350     0.07400
C513        C  0.50367399  0.43183772  0.84950357     0.09300
C514        C  0.51268154  0.45535711  0.82228358    -0.17500
C515        C  0.50831480  0.47885292  0.65083542    -0.16700
C516        C  0.50017730  0.45288502  0.62580037     0.07400
C517        C  0.49534079  0.42591228  0.59435925     0.09300
C518        C  0.49390579  0.40562424  0.56611933    -0.17500
C519        C  0.95877426  0.57866605  0.63807242    -0.16700
C520        C  0.93593055  0.58013595  0.61549398     0.07400
C521        C  0.90954930  0.58302858  0.58964364     0.09300
C522        C  0.89038504  0.58766853  0.56489967    -0.17500
C523        C  0.96903781  0.60529435  0.85065283    -0.16700
C524        C  0.95010256  0.61332721  0.87162632     0.07400
C525        C  0.92603702  0.61918655  0.89733671     0.09300
C526        C  0.90564162  0.61982294  0.92332617    -0.17500
C527        C  0.93765488  0.40190223  0.57818777    -0.16700
C528        C  0.95023704  0.41789675  0.61109346     0.07400
C529        C  0.96418257  0.43985482  0.64826611     0.09300
C530        C  0.97631018  0.46305343  0.67688835    -0.17500
C531        C  0.97832017  0.47597969  0.83787041    -0.16700
C532        C  0.96644429  0.45513288  0.86760998     0.07400
C533        C  0.95209434  0.43396476  0.90447706     0.09300
C534        C  0.93872195  0.41652265  0.93605664    -0.17500
C535        C  0.19070692  0.53927364  0.58053480    -0.16700
C536        C  0.17088220  0.54029397  0.60711679     0.07400
C537        C  0.14604166  0.54556553  0.63261265     0.09300
C538        C  0.12535831  0.55324389  0.65118548    -0.17500
C539        C  0.12383151  0.56448184  0.86147440    -0.16700
C540        C  0.14129867  0.55385878  0.88176684     0.07400
C541        C  0.16271029  0.54358487  0.90709489     0.09300
C542        C  0.18102842  0.53788060  0.93206614    -0.17500
C543        C  0.12849584  0.69524804  0.65594724    -0.16700
C544        C  0.14487962  0.72210810  0.63152451     0.07400
C545        C  0.16411268  0.75091434  0.60035794     0.09300
C546        C  0.18014140  0.77337627  0.57211834    -0.17500
C547        C  0.13177738  0.70872336  0.83124347    -0.16700
C548        C  0.14745146  0.73656969  0.85531905     0.07400
C549        C  0.16479416  0.76424707  0.88830481     0.09300
C550        C  0.17925257  0.78389766  0.91912670    -0.17500
C551        C  0.73558008  0.21835661  0.56325851    -0.16700
C552        C  0.71488993  0.20298961  0.59267731     0.07400
C553        C  0.68893374  0.18434655  0.62595283     0.09300
C554        C  0.66433239  0.16819711  0.65244135    -0.17500
C555        C  0.68153162  0.17248667  0.83184363    -0.16700
C556        C  0.70768031  0.18750655  0.85780861     0.07400
C557        C  0.73285649  0.20417524  0.89274263     0.09300
C558        C  0.75054599  0.21859676  0.92457114    -0.17500
C559        C  0.50957424  0.23077146  0.57980032    -0.16700
C560        C  0.51369620  0.21270915  0.60615583     0.07400
C561        C  0.51975741  0.18845702  0.63176693     0.09300
C562        C  0.52689453  0.16758090  0.65080002    -0.17500
C563        C  0.54699650  0.17212243  0.86247439    -0.16700
C564        C  0.54053364  0.19246828  0.88356830     0.07400
C565        C  0.53323939  0.21567768  0.90963650     0.09300
C566        C  0.52630588  0.23293584  0.93464119    -0.17500
C567        C  0.36662016  0.97657077  0.58604654    -0.16700
C568        C  0.38392908  0.98991731  0.61831454     0.07400
C569        C  0.40796482  0.00483283  0.65424522     0.09300
C570        C  0.43286461  0.01758939  0.68142237    -0.17500
C571        C  0.38098557  0.97163910  0.93130714    -0.16700
C572        C  0.40033739  0.98721100  0.90108400     0.07400
C573        C  0.42436273  0.00523561  0.86631257     0.09300
C574        C  0.44745987  0.01980686  0.83833835    -0.17500
C575        C  0.55011384  0.00005381  0.63903974    -0.16700
C576        C  0.55280685  0.97795614  0.61662110     0.07400
C577        C  0.55691190  0.95226350  0.59111136     0.09300
C578        C  0.56163680  0.93317627  0.56642964    -0.17500
C579        C  0.59591384  0.94988529  0.92501582    -0.16700
C580        C  0.59480521  0.97000763  0.89897507     0.07400
C581        C  0.58800105  0.99324107  0.87290910     0.09300
C582        C  0.57912864  0.01134870  0.85160884    -0.17500
loop_ 
_geom_bond_atom_site_label_1 
_geom_bond_atom_site_label_2 
_geom_bond_distance 
_geom_bond_site_symmetry_2 
_ccdc_geom_bond_type 
C1            C2   1.404       .  A
C1            C6   1.388       .  A
C1          C288   1.438       .  S
C2          C294   1.421       .  A
C2            H7   1.080       .  S
C3            C4   1.421   1_556  A
C3          C293   1.418       .  A
C3          C480   1.509       .  S
C4            C5   1.402       .  A
C4            H8   1.081       .  S
C5          C297   1.388   1_554  A
C5          C287   1.439       .  S
C6          C296   1.387       .  A
C6            H9   1.086       .  S
C10          C15   1.403       .  A
C10         C302   1.401       .  A
C10         C280   1.453       .  S
C11          C12   1.400       .  A
C11         C301   1.401   1_554  A
C11          H16   1.084   1_565  S
C12          C13   1.399       .  A
C12         C276   1.444       .  S
C13          C14   1.414   1_554  A
C13          H17   1.079       .  S
C14         C306   1.418       .  A
C14         C124   1.511       .  S
C15         C305   1.419       .  A
C15          H18   1.080       .  S
O19          C27   1.271       .  A
O19         Co39   2.020       .  S
O20          C28   1.246       .  A
O20         Co40   1.971       .  S
O21          C29   1.259       .  A
O21         Co41   1.966       .  S
O22          C30   1.254       .  A
O22         Co42   2.012       .  S
O23          C29   1.271       .  A
O23         Co40   2.022       .  S
O24          C30   1.240       .  A
O24         Co39   1.956       .  S
O25          C28   1.254       .  A
O25         Co42   2.004       .  S
O26          C27   1.258       .  A
O26         Co41   1.967       .  S
C27         C291   1.434       .  S
C28         C263   1.444       .  S
C29         C284   1.434   1_545  S
C30         C264   1.436       .  S
O31          C44   1.271       .  A
O31         Co39   1.903       .  S
O32          C45   1.254       .  A
O32         Co40   1.981       .  S
O33          C46   1.265       .  A
O33         Co41   2.023       .  S
O34          C47   1.299       .  A
O34         Co42   2.090       .  S
O35          C47   1.270       .  A
O35         Co40   1.896       .  S
O36          C46   1.255       .  A
O36         Co39   1.988       .  S
O37          C44   1.297       .  A
O37         Co42   2.080       .  S
O38          C45   1.263       .  A
O38         Co41   2.012       .  S
Co39         O43   1.930       .  S
Co40         O43   1.934       .  S
Co41         O43   2.104       .  S
Co42         O43   2.259       .  S
C44         C272   1.440       .  S
C45         C279   1.436       .  S
C46         C283   1.447       .  S
C47         C271   1.442       .  S
C48          C49   1.404       .  A
C48          C53   1.389       .  A
C48         C275   1.445       .  S
C49         C341   1.426       .  A
C49          H54   1.077       .  S
C50          C51   1.422       .  A
C50         C340   1.421   1_554  A
C50         C453   1.514   1_554  S
C51          C52   1.407       .  A
C51          H55   1.081       .  S
C52         C344   1.392       .  A
C52         C268   1.445       .  S
C53         C343   1.391       .  A
C53          H56   1.086       .  S
C57          C58   1.398       .  A
C57          C62   1.402       .  A
C57         C267   1.443       .  S
C58         C350   1.396       .  A
C58          H63   1.085       .  S
C59          C60   1.405       .  A
C59         C349   1.399   1_554  A
C59         C260   1.449       .  S
C60         C352   1.418       .  A
C60          H64   1.081       .  S
C61          C62   1.417       .  A
C61         C351   1.418       .  A
C61         C108   1.512       .  S
C62          H65   1.080       .  S
O66          C74   1.241       .  A
O66         Co86   1.961       .  S
O67          C75   1.270   1_455  A
O67         Co87   2.020       .  S
O68          C76   1.254       .  A
O68         Co88   2.007       .  S
O69          C77   1.260       .  A
O69         Co89   1.970       .  S
O70          C76   1.244       .  A
O70         Co87   1.964       .  S
O71          C77   1.272   1_455  A
O71         Co86   2.019       .  S
O72          C75   1.259       .  A
O72         Co89   1.967       .  S
O73          C74   1.252       .  A
O73         Co88   2.005       .  S
C74         C256   1.437       .  S
C75         C228   1.434       .  S
C76         C252   1.440       .  S
C77         C232   1.435       .  S
O78          C91   1.257   1_455  A
O78         Co86   1.989       .  S
O79          C92   1.269       .  A
O79         Co87   1.896       .  S
O80          C93   1.298       .  A
O80         Co88   2.080       .  S
O81          C94   1.265   1_655  A
O81         Co89   2.016       .  S
O82          C94   1.257       .  A
O82         Co87   1.984       .  S
O83          C93   1.271       .  A
O83         Co86   1.896       .  S
O84          C91   1.263       .  A
O84         Co89   2.012       .  S
O85          C92   1.297       .  A
O85         Co88   2.082       .  S
Co86         O90   1.930       .  S
Co87         O90   1.933       .  S
Co88         O90   2.258       .  S
Co89         O90   2.096   1_655  S
C91         C240   1.442       .  S
C92         C247   1.438       .  S
C93         C248   1.437       .  S
C94         C239   1.439   1_455  S
C95          C96   1.390       .  A
C95         C100   1.401       .  A
C95         C251   1.442       .  S
C96         C388   1.392       .  A
C96         H101   1.086       .  S
C97          C98   1.404       .  A
C97         C387   1.391       .  A
C97         C244   1.442       .  S
C98          C99   1.421   1_554  A
C98         H102   1.079       .  S
C99         C391   1.424       .  A
C99         C464   1.518       .  S
C100        C390   1.420       .  A
C100        H103   1.080       .  S
C104        C105   1.401       .  A
C104        C109   1.403       .  A
C104        C243   1.449       .  S
C105        C397   1.401       .  A
C105        H110   1.084       .  S
C106        C107   1.403       .  A
C106        C396   1.402       .  A
C106        C236   1.448       .  S
C107        C399   1.415       .  A
C107        H111   1.081       .  S
C108        C109   1.417       .  A
C108        C398   1.416       .  A
C109        H112   1.080       .  S
C113        C114   1.404       .  A
C113        C118   1.389       .  A
C113        C235   1.438       .  S
C114        C115   1.420       .  A
C114        H119   1.080       .  S
C115        C407   1.422       .  A
C115        C180   1.512       .  S
C116        C117   1.403       .  A
C116        C406   1.422   1_554  A
C116        H120   1.080       .  S
C117        C409   1.388   1_554  A
C117        C231   1.440       .  S
C118        C408   1.387       .  A
C118        H121   1.086       .  S
C122        C123   1.401       .  A
C122        C418   1.398       .  A
C122        C259   1.444       .  S
C123        C415   1.417       .  A
C123        H128   1.080       .  S
C124        C125   1.419   1_556  A
C124        C414   1.415       .  A
C125        C126   1.401       .  A
C125        H129   1.079       .  S
C126        C127   1.397   1_554  A
C126        C255   1.446       .  S
C127        C413   1.398       .  A
C127        H130   1.085       .  S
O131        C139   1.265       .  A
O131       Co151   2.011       .  S
O132        C140   1.294       .  A
O132       Co152   2.064       .  S
O133        C141   1.273       .  A
O133       Co153   1.912       .  S
O134        C142   1.262       .  A
O134       Co154   1.995       .  S
O135        C141   1.294       .  A
O135       Co152   2.064       .  S
O136        C142   1.266       .  A
O136       Co151   2.015       .  S
O137        C140   1.273       .  A
O137       Co154   1.912       .  S
O138        C139   1.263       .  A
O138       Co153   1.995       .  S
C139        C224   1.446       .  S
C140        C199   1.443       .  S
C141        C223   1.444       .  S
C142        C203   1.447       .  S
O143        C156   1.263       .  A
O143       Co151   1.977       .  S
O144        C157   1.252       .  A
O144       Co152   1.999       .  S
O145        C158   1.271       .  A
O145       Co153   2.016       .  S
O146        C159   1.246       .  A
O146       Co154   1.975       .  S
O147        C159   1.253       .  A
O147       Co152   1.999       .  S
O148        C158   1.264       .  A
O148       Co151   1.979       .  S
O149        C156   1.271       .  A
O149       Co154   2.016       .  S
O150        C157   1.247       .  A
O150       Co153   1.976       .  S
Co151       O155   2.087       .  S
Co152       O155   2.254       .  S
Co153       O155   1.954       .  S
Co154       O155   1.954       .  S
C156        C211   1.437       .  S
C157        C212   1.443       .  S
C158        C216   1.439       .  S
C159        C204   1.442       .  S
C160        C161   1.408       .  A
C160        C165   1.400   1_554  A
C160        C227   1.452       .  S
C161        C453   1.420   1_554  A
C161        H166   1.081       .  S
C162        C163   1.421       .  A
C162        C452   1.424       .  A
C162        C341   1.526       .  S
C163        C164   1.403       .  A
C163        H167   1.077       .  S
C164        C456   1.398       .  A
C164        C220   1.451       .  S
C165        C455   1.399       .  A
C165        H168   1.085       .  S
C169        C170   1.399   1_554  A
C169        C174   1.408       .  A
C169        C200   1.453       .  S
C170        C462   1.398       .  A
C170        H175   1.085       .  S
C171        C172   1.402       .  A
C171        C461   1.398       .  A
C171        C196   1.449       .  S
C172        C173   1.419       .  A
C172        H176   1.080       .  S
C173        C465   1.419       .  A
C173        C390   1.514       .  S
C174        C464   1.422   1_554  A
C174        H177   1.080       .  S
C178        C179   1.400       .  A
C178        C183   1.397       .  A
C178        C219   1.445       .  S
C179        C471   1.416       .  A
C179        H184   1.080       .  S
C180        C181   1.420       .  A
C180        C470   1.415       .  A
C181        C182   1.407       .  A
C181        H185   1.080       .  S
C182        C474   1.399       .  A
C182        C215   1.449       .  S
C183        C473   1.397   1_554  A
C183        H186   1.085       .  S
C187        C188   1.399       .  A
C187        C192   1.398       .  A
C187        C208   1.444       .  S
C188        C480   1.415   1_554  A
C188        H193   1.081       .  S
C189        C190   1.419       .  A
C189        C479   1.417       .  A
C189        C294   1.513       .  S
C190        C191   1.405       .  A
C190        H194   1.080       .  S
C191        C483   1.397       .  A
C191        C207   1.447       .  S
C192        C482   1.399   1_554  A
C192        H195   1.085       .  S
C196        C197   1.211       .  T
C197        C198   1.420       .  S
C198        C199   1.211       .  T
C200        C201   1.214       .  T
C201        C202   1.424       .  S
C202        C203   1.213       .  T
C204        C205   1.210       .  T
C205        C206   1.419       .  S
C206        C207   1.210       .  T
C208        C209   1.208       .  T
C209        C210   1.415       .  S
C210        C211   1.207       .  T
C212        C213   1.211       .  T
C213        C214   1.420       .  S
C214        C215   1.211       .  T
C216        C217   1.208       .  T
C217        C218   1.416       .  S
C218        C219   1.208       .  T
C220        C221   1.212       .  T
C221        C222   1.422       .  S
C222        C223   1.211       .  T
C224        C225   1.213       .  T
C225        C226   1.424       .  S
C226        C227   1.213       .  T
C228        C229   1.206       .  T
C229        C230   1.412       .  S
C230        C231   1.206       .  T
C232        C233   1.206       .  T
C233        C234   1.412       .  S
C234        C235   1.205       .  T
C236        C237   1.210       .  T
C237        C238   1.418       .  S
C238        C239   1.209       .  T
C240        C241   1.211       .  T
C241        C242   1.421       .  S
C242        C243   1.211       .  T
C244        C245   1.207       .  T
C245        C246   1.414       .  S
C246        C247   1.207       .  T
C248        C249   1.207       .  T
C249        C250   1.413       .  S
C250        C251   1.207       .  T
C252        C253   1.209       .  T
C253        C254   1.417       .  S
C254        C255   1.209       .  T
C256        C257   1.207       .  T
C257        C258   1.415       .  S
C258        C259   1.208       .  T
C260        C261   1.211       .  T
C261        C262   1.420       .  S
C262        C263   1.211       .  T
C264        C265   1.207       .  T
C265        C266   1.414       .  S
C266        C267   1.207       .  T
C268        C269   1.209       .  T
C269        C270   1.418       .  S
C270        C271   1.209       .  T
C272        C273   1.209       .  T
C273        C274   1.417       .  S
C274        C275   1.209       .  T
C276        C277   1.208       .  T
C277        C278   1.415       .  S
C278        C279   1.207   1_565  T
C280        C281   1.213       .  T
C281        C282   1.424   1_565  S
C282        C283   1.213       .  T
C284        C285   1.206       .  T
C285        C286   1.412       .  S
C286        C287   1.205       .  T
C288        C289   1.205       .  T
C289        C290   1.411       .  S
C290        C291   1.205   1_565  T
C292        C293   1.404       .  A
C292        C297   1.390       .  A
C292        C579   1.437       .  S
C293        H298   1.081       .  S
C294        C295   1.421       .  A
C295        C296   1.401       .  A
C295        H299   1.079       .  S
C296        C578   1.437       .  S
C297        H300   1.086       .  S
C301        C306   1.404       .  A
C301        C571   1.449       .  S
C302        C303   1.403       .  A
C302        H307   1.084   1_565  S
C303        C304   1.403       .  A
C303        C567   1.449       .  S
C304        C305   1.416       .  A
C304        H308   1.080       .  S
C305        C415   1.515       .  S
C306        H309   1.079       .  S
O310        C318   1.270       .  A
O310       Co330   2.016       .  S
O311        C319   1.244       .  A
O311       Co331   1.964       .  S
O312        C320   1.258       .  A
O312       Co332   1.962       .  S
O313        C321   1.253       .  A
O313       Co333   2.011       .  S
O314        C320   1.270       .  A
O314       Co331   2.020       .  S
O315        C321   1.240       .  A
O315       Co330   1.959       .  S
O316        C319   1.253       .  A
O316       Co333   2.003       .  S
O317        C318   1.259       .  A
O317       Co332   1.970       .  S
C318        C582   1.434       .  S
C319        C554   1.439       .  S
C320        C575   1.431       .  S
C321        C555   1.438       .  S
O322        C335   1.271       .  A
O322       Co330   1.900       .  S
O323        C336   1.256       .  A
O323       Co331   1.982       .  S
O324        C337   1.263       .  A
O324       Co332   2.012       .  S
O325        C338   1.297       .  A
O325       Co333   2.084       .  S
O326        C338   1.270       .  A
O326       Co331   1.896       .  S
O327        C337   1.257       .  A
O327       Co330   1.989       .  S
O328        C335   1.296       .  A
O328       Co333   2.076       .  S
O329        C336   1.266       .  A
O329       Co332   2.020       .  S
Co330       O334   1.929       .  S
Co331       O334   1.934       .  S
Co332       O334   2.097       .  S
Co333       O334   2.258       .  S
C335        C563   1.437       .  S
C336        C570   1.442       .  S
C337        C574   1.442       .  S
C338        C562   1.440       .  S
C339        C340   1.403       .  A
C339        C344   1.390   1_556  A
C339        C566   1.443       .  S
C340        H345   1.080       .  S
C341        C342   1.425       .  A
C342        C343   1.407       .  A
C342        H346   1.078       .  S
C343        C559   1.444       .  S
C344        H347   1.086       .  S
C348        C349   1.398       .  A
C348        C353   1.400       .  A
C348        C558   1.445       .  S
C349        H354   1.085       .  S
C350        C351   1.401       .  A
C350        C551   1.445       .  S
C351        H355   1.079       .  S
C352        C353   1.416   1_554  A
C352        C399   1.510       .  S
C353        H356   1.080       .  S
O357        C365   1.241       .  A
O357       Co377   1.961       .  S
O358        C366   1.271   1_455  A
O358       Co378   2.022       .  S
O359        C367   1.255       .  A
O359       Co379   2.008       .  S
O360        C368   1.258       .  A
O360       Co380   1.965       .  S
O361        C367   1.244       .  A
O361       Co378   1.966       .  S
O362        C368   1.271   1_455  A
O362       Co377   2.018       .  S
O363        C366   1.258       .  A
O363       Co380   1.966       .  S
O364        C365   1.252       .  A
O364       Co379   2.005       .  S
C365        C547   1.436       .  S
C366        C519   1.434       .  S
C367        C543   1.442       .  S
C368        C523   1.431       .  S
O369        C382   1.255   1_455  A
O369       Co377   1.985       .  S
O370        C383   1.270       .  A
O370       Co378   1.899       .  S
O371        C384   1.297       .  A
O371       Co379   2.084       .  S
O372        C385   1.264       .  A
O372       Co380   2.017       .  S
O373        C385   1.256   1_455  A
O373       Co378   1.984       .  S
O374        C384   1.271       .  A
O374       Co377   1.902       .  S
O375        C382   1.264       .  A
O375       Co380   2.018       .  S
O376        C383   1.296       .  A
O376       Co379   2.079       .  S
Co377       O381   1.933       .  S
Co378       O381   1.936       .  S
Co379       O381   2.256       .  S
Co380       O381   2.102   1_655  S
C382        C531   1.442       .  S
C383        C538   1.439       .  S
C384        C539   1.441       .  S
C385        C530   1.441       .  S
C386        C387   1.390   1_556  A
C386        C391   1.405       .  A
C386        C542   1.445       .  S
C387        H392   1.086       .  S
C388        C389   1.406       .  A
C388        C535   1.443       .  S
C389        C390   1.422       .  A
C389        H393   1.080       .  S
C391        H394   1.079       .  S
C395        C396   1.401   1_556  A
C395        C400   1.401       .  A
C395        C534   1.449       .  S
C396        H401   1.084       .  S
C397        C398   1.402       .  A
C397        C527   1.449       .  S
C398        H402   1.079       .  S
C399        C400   1.416   1_554  A
C400        H403   1.080       .  S
C404        C405   1.402       .  A
C404        C409   1.389       .  A
C404        C526   1.435       .  S
C405        C406   1.418       .  A
C405        H410   1.080       .  S
C406        C471   1.510   1_556  S
C407        C408   1.401       .  A
C407        H411   1.080       .  S
C408        C522   1.439       .  S
C409        H412   1.086       .  S
C413        C414   1.401       .  A
C413        C550   1.442       .  S
C414        H419   1.079       .  S
C415        C416   1.420       .  A
C416        C417   1.405       .  A
C416        H420   1.080       .  S
C417        C418   1.398       .  A
C417        C546   1.448       .  S
C418        H421   1.085       .  S
O422        C430   1.266       .  A
O422       Co442   2.015       .  S
O423        C431   1.294       .  A
O423       Co443   2.061       .  S
O424        C432   1.272       .  A
O424       Co444   1.909       .  S
O425        C433   1.261       .  A
O425       Co445   1.994       .  S
O426        C432   1.295       .  A
O426       Co443   2.068       .  S
O427        C433   1.265       .  A
O427       Co442   2.011       .  S
O428        C431   1.273       .  A
O428       Co445   1.909       .  S
O429        C430   1.263       .  A
O429       Co444   1.997       .  S
C430        C515   1.448       .  S
C431        C490   1.439       .  S
C432        C514   1.443       .  S
C433        C494   1.443       .  S
O434        C447   1.264       .  A
O434       Co442   1.979       .  S
O435        C448   1.254       .  A
O435       Co443   2.002       .  S
O436        C449   1.270       .  A
O436       Co444   2.017       .  S
O437        C450   1.248       .  A
O437       Co445   1.978       .  S
O438        C450   1.252       .  A
O438       Co443   1.998       .  S
O439        C449   1.262       .  A
O439       Co442   1.975       .  S
O440        C447   1.271       .  A
O440       Co445   2.015       .  S
O441        C448   1.247       .  A
O441       Co444   1.974       .  S
Co442       O446   2.088       .  S
Co443       O446   2.254       .  S
Co444       O446   1.952       .  S
Co445       O446   1.952       .  S
C447        C502   1.439       .  S
C448        C503   1.443       .  S
C449        C507   1.437       .  S
C450        C495   1.443       .  S
C451        C452   1.409       .  A
C451        C456   1.399       .  A
C451        C518   1.455       .  S
C452        H457   1.078       .  S
C453        C454   1.418       .  A
C454        C455   1.403       .  A
C454        H458   1.080       .  S
C455        C511   1.449       .  S
C456        H459   1.085       .  S
C460        C461   1.399       .  A
C460        C465   1.406       .  A
C460        C491   1.450       .  S
C461        H466   1.085       .  S
C462        C463   1.401       .  A
C462        C487   1.447       .  S
C463        C464   1.417       .  A
C463        H467   1.079       .  S
C465        H468   1.080       .  S
C469        C470   1.399       .  A
C469        C474   1.397       .  A
C469        C510   1.444       .  S
C470        H475   1.080       .  S
C471        C472   1.420   1_554  A
C472        C473   1.406       .  A
C472        H476   1.081       .  S
C473        C506   1.449       .  S
C474        H477   1.085       .  S
C478        C479   1.401       .  A
C478        C483   1.397       .  A
C478        C499   1.445       .  S
C479        H484   1.080       .  S
C480        C481   1.419       .  A
C481        C482   1.407       .  A
C481        H485   1.081       .  S
C482        C498   1.449       .  S
C483        H486   1.085       .  S
C487        C488   1.209       .  T
C488        C489   1.417       .  S
C489        C490   1.209       .  T
C491        C492   1.211       .  T
C492        C493   1.421       .  S
C493        C494   1.211       .  T
C495        C496   1.211       .  T
C496        C497   1.421       .  S
C497        C498   1.211       .  T
C499        C500   1.209       .  T
C500        C501   1.416       .  S
C501        C502   1.208       .  T
C503        C504   1.211       .  T
C504        C505   1.420       .  S
C505        C506   1.211       .  T
C507        C508   1.207       .  T
C508        C509   1.415       .  S
C509        C510   1.208       .  T
C511        C512   1.211       .  T
C512        C513   1.420       .  S
C513        C514   1.211       .  T
C515        C516   1.214       .  T
C516        C517   1.426       .  S
C517        C518   1.215       .  T
C519        C520   1.206       .  T
C520        C521   1.412       .  S
C521        C522   1.205       .  T
C523        C524   1.203       .  T
C524        C525   1.408       .  S
C525        C526   1.203       .  T
C527        C528   1.211       .  T
C528        C529   1.420       .  S
C529        C530   1.210       .  T
C531        C532   1.211       .  T
C532        C533   1.420       .  S
C533        C534   1.211       .  T
C535        C536   1.208       .  T
C536        C537   1.415       .  S
C537        C538   1.208       .  T
C539        C540   1.209       .  T
C540        C541   1.417       .  S
C541        C542   1.209       .  T
C543        C544   1.210       .  T
C544        C545   1.419       .  S
C545        C546   1.210       .  T
C547        C548   1.207       .  T
C548        C549   1.414       .  S
C549        C550   1.207       .  T
C551        C552   1.208       .  T
C552        C553   1.416       .  S
C553        C554   1.208       .  T
C555        C556   1.208       .  T
C556        C557   1.416       .  S
C557        C558   1.208       .  T
C559        C560   1.208       .  T
C560        C561   1.417       .  S
C561        C562   1.209       .  T
C563        C564   1.207       .  T
C564        C565   1.415       .  S
C565        C566   1.207       .  T
C567        C568   1.211       .  T
C568        C569   1.420   1_565  S
C569        C570   1.210       .  T
C571        C572   1.211       .  T
C572        C573   1.421   1_565  S
C573        C574   1.211       .  T
C575        C576   1.204   1_545  T
C576        C577   1.409       .  S
C577        C578   1.204       .  T
C579        C580   1.204       .  T
C580        C581   1.410       .  S
C581        C582   1.205   1_565  T
