geometry optimzed in LAMMPS
_audit_creation_date              2020-11-30 
_audit_creation_method            'lammps2cif' 
_symmetry_space_group_name_H-M    'P1' 
_symmetry_Int_Tables_number       1 
_symmetry_cell_setting            triclinic 
loop_ 
_symmetry_equiv_pos_as_xyz 
  x,y,z 
_cell_length_a                    33.46063327999336 
_cell_length_b                    33.42645760974315 
_cell_length_c                    33.310483039518424 
_cell_angle_alpha                 89.87025838966365 
_cell_angle_beta                  90.12588544659347 
_cell_angle_gamma                 90.0236360310363 
loop_ 
_atom_site_label 
_atom_site_type_symbol 
_atom_site_fract_x 
_atom_site_fract_y 
_atom_site_fract_z 
_atom_site_charge 
O1          O  0.97969512  0.11634448  0.05765001    -0.85600
O2          O  0.00217358  0.89340665  0.05557056    -0.85760
O3          O  0.91976146  0.99942699  0.09166441    -0.87430
O4          O  0.04369634  0.01131818  0.11347969    -0.86190
O5          O  0.09943743  0.02205930  0.07467584    -0.85780
O6          O  0.87812228  0.99769760  0.03678402    -0.87150
O7          O  0.99145911  0.94118301  0.10340475    -0.85630
O8          O  0.96950211  0.06515704  0.10209876    -0.85210
Zr9        Zr  0.98761183  0.00496483  0.06996613     2.84310
O10         O  0.03907627  0.97112110  0.03890658    -1.07190
O11         O  0.94909685  0.04230280  0.02585512    -1.07920
C12         C  0.97236367  0.10216548  0.09301090     1.07510
C13         C  0.99646483  0.90489566  0.09169477     1.07450
C14         C  0.88533342  0.99845862  0.07461684     1.10440
C15         C  0.08103119  0.01772567  0.10836948     1.08210
H16         H  0.94002714  0.94243587  0.04075456     0.33770
O17         O  0.95717216  0.96087048  0.02669742    -1.28140
H18         H  0.04087173  0.07016976  0.05787958     0.33450
O19         O  0.02930035  0.05172687  0.03888499    -1.29820
O20         O  0.02008480  0.89552117  0.93190667    -0.85590
O21         O  0.00311265  0.11524992  0.92646402    -0.87090
O22         O  0.89472842  0.93292555  0.97614359    -0.85670
O23         O  0.11927429  0.95775209  0.00890753    -0.85720
O24         O  0.09961073  0.08662437  0.99667812    -0.85430
O25         O  0.88605793  0.05907928  0.96530018    -0.85240
O26         O  0.95877207  0.98968785  0.87093686    -0.85610
O27         O  0.08017153  0.00792059  0.89458146    -0.85070
O28         O  0.90413384  0.98375644  0.91195473    -0.86130
O29         O  0.12360788  0.01420622  0.94687800    -0.85290
O30         O  0.94853553  0.89053853  0.97786658    -0.85690
O31         O  0.92592412  0.11263002  0.98055958    -0.85410
O32         O  0.04640891  0.12979686  0.99585601    -0.85060
O33         O  0.07604065  0.90475370  0.00004807    -0.85470
O34         O  0.02972189  0.94431719  0.88556666    -0.85770
O35         O  0.01615768  0.06676913  0.87948107    -0.87100
Zr36       Zr  0.00835285  0.92805625  0.99391006     2.83100
Zr37       Zr  0.99072352  0.08613613  0.99198148     2.83500
Zr38       Zr  0.92180290  0.99851877  0.97976824     2.84090
Zr39       Zr  0.07939686  0.01740086  0.00504571     2.83360
Zr40       Zr  0.01250266  0.00639683  0.91540171     2.84220
O41         O  0.04128067  0.05214824  0.95872422    -1.07680
O42         O  0.97067018  0.96225748  0.94733404    -1.07180
C43         C  0.02833472  0.90766849  0.89641670     1.07480
C44         C  0.01287214  0.10287405  0.89119992     1.10100
C45         C  0.91096514  0.89829225  0.97400844     1.07660
C46         C  0.11090080  0.92052943  0.00416301     1.08020
C47         C  0.08373691  0.12177739  0.99430061     1.07600
C48         C  0.89297184  0.09670081  0.96925750     1.07150
C49         C  0.92193820  0.98195276  0.87794511     1.07580
C50         C  0.11549973  0.00879166  0.90935829     1.07090
H51         H  0.94739760  0.05747437  0.92412368     0.33770
O52         O  0.96192223  0.04327161  0.94493545    -1.28770
H53         H  0.07053728  0.95686726  0.94742860     0.33790
O54         O  0.05027493  0.97197139  0.96120707    -1.30160
C55         C  0.00561493  0.23322518  0.28674629     0.04020
C56         C  0.98748984  0.20799141  0.25891126    -0.12130
C57         C  0.98907380  0.21657867  0.21820406     0.01520
C58         C  0.00409884  0.25288311  0.20523593    -0.10660
C59         C  0.01511406  0.28224478  0.23259014     0.04010
C60         C  0.01796964  0.27214481  0.27415501    -0.10080
H61         H  0.97577042  0.17927778  0.26863551     0.09610
H62         H  0.00537854  0.25925455  0.17328484     0.07140
H63         H  0.02917563  0.29359576  0.29569747     0.06980
O64         O  0.00142400  0.11664757  0.44033525    -0.74400
O65         O  0.00675674  0.07072331  0.38974694    -0.53310
C66         C  0.00477638  0.10735193  0.40316192     0.79330
O67         O  0.10995592  0.99808560  0.57573675    -0.59000
O68         O  0.06126728  0.99861148  0.62386931    -0.52030
C69         C  0.09858436  0.99747764  0.61255289     0.71340
O70         O  0.11681525  0.00529579  0.44552903    -0.73560
O71         O  0.07267287  0.00248863  0.39286791    -0.54120
C72         C  0.10866626  0.00426845  0.40793229     0.77340
O73         O  0.99933525  0.11510100  0.56943921    -0.58700
O74         O  0.99659988  0.06861800  0.61975535    -0.51820
C75         C  0.99824377  0.10558959  0.60670503     0.73940
Zr76       Zr  0.00047171  0.08337320  0.50474751     2.54710
O77         O  0.05879435  0.12669287  0.50170788    -0.79270
O78         O  0.94853980  0.13403565  0.50919321    -0.92690
Zr79       Zr  0.08195183  0.00127008  0.50866440     2.64680
O80         O  0.13037827  0.05558380  0.51271286    -0.97640
O81         O  0.12992995  0.94660464  0.50686701    -0.79700
O82         O  0.04336278  0.04293987  0.46611324    -0.83060
O83         O  0.03946435  0.04224649  0.54750852    -2.17770
O84         O  0.88249807  0.00288318  0.56333466    -0.66450
O85         O  0.92652129  0.00337180  0.61610494    -0.51020
C86         C  0.89041879  0.00353740  0.60101260     0.72320
O87         O  0.00373397  0.88822316  0.43717985    -0.59360
O88         O  0.00390017  0.93595788  0.38776755    -0.51330
C89         C  0.00410877  0.89887047  0.40011559     0.74120
O90         O  0.99409667  0.88519501  0.56597092    -0.70750
O91         O  0.99301072  0.93089643  0.61723046    -0.49430
C92         C  0.99230280  0.89427332  0.60323353     0.75510
O93         O  0.88860405  0.00006099  0.43452072    -0.66080
O94         O  0.93742384  0.00195822  0.38638678    -0.53280
C95         C  0.90020962  0.00043526  0.39795796     0.73890
Zr96       Zr  0.91802934  0.00190607  0.50026506     2.77540
O97         O  0.87012494  0.94741066  0.49444932    -0.96830
O98         O  0.87101230  0.05739790  0.49712417    -0.77650
Zr99       Zr  0.00015441  0.91940499  0.50270991     2.70070
O100        O  0.94730157  0.86960543  0.49743584    -0.78900
O101        O  0.05734608  0.87448368  0.50595897    -0.97980
Zr102      Zr  0.00363210  0.00272792  0.42203434     2.21500
Zr103      Zr  0.99585580  0.00044247  0.58669704     2.11130
O104        O  0.95675637  0.95964782  0.54202231    -2.46670
O105        O  0.96047951  0.96093424  0.46115576    -0.78690
O106        O  0.95705732  0.04250633  0.54310696    -0.70890
O107        O  0.04331472  0.96074484  0.46498854    -2.31850
O108        O  0.96019212  0.04394245  0.46173643    -2.28050
O109        O  0.03917823  0.95934272  0.54664078    -0.72650
H110        H  0.05565646  0.05882164  0.56490827     0.79350
H111        H  0.06079409  0.94417842  0.44904099     0.80440
H112        H  0.93887090  0.94259747  0.55730536     0.82660
H113        H  0.94408048  0.06099863  0.44480317     0.80270
H114        H  0.12359166  0.93131704  0.48224941     0.43300
H115        H  0.07034852  0.88044575  0.53200171     0.42270
H116        H  0.93001916  0.87925845  0.47527895     0.41950
H117        H  0.88083662  0.92599235  0.51194727     0.39890
H118        H  0.87757844  0.07411457  0.52073870     0.43020
H119        H  0.92748042  0.12473630  0.49053351     0.37800
H120        H  0.07529736  0.11598586  0.47956353     0.43920
H121        H  0.12396515  0.06997957  0.53782257     0.40330
H122        H  0.84576619  0.95703598  0.50818167     0.45250
H123        H  0.96007900  0.15810452  0.49629262     0.43980
H124        H  0.15618654  0.04217898  0.51830619     0.44110
H125        H  0.04556661  0.84753934  0.50956119     0.44470
C126        C  0.77482793  0.99764910  0.27927990     0.04020
C127        C  0.73239894  0.99700505  0.27393927    -0.12130
C128        C  0.71647983  0.99750844  0.23413933     0.01520
C129        C  0.74241558  0.99910810  0.20177752    -0.10660
C130        C  0.78305712  0.99851229  0.20743436     0.04010
C131        C  0.79949436  0.99786174  0.24552584    -0.10080
H132        H  0.71267772  0.99620228  0.29962818     0.09610
H133        H  0.73075881  0.99984496  0.17128515     0.07140
H134        H  0.83176826  0.99789232  0.24889109     0.06980
C135        C  0.99213644  0.71607417  0.23415648     0.04020
C136        C  0.98708750  0.74377457  0.20339965    -0.12130
C137        C  0.98958618  0.78404200  0.21092443     0.01520
C138        C  0.99396549  0.79823659  0.24954593    -0.10660
C139        C  0.99388266  0.77238793  0.28247329     0.04010
C140        C  0.99472363  0.73004021  0.27491673    -0.10080
H141        H  0.98396126  0.73387121  0.17249217     0.09610
H142        H  0.99616135  0.83034053  0.25401666     0.07140
H143        H  0.99712289  0.70898019  0.29951020     0.06980
C144        C  0.27176600  0.00548206  0.23135699     0.04020
C145        C  0.23641558  0.00415839  0.20887100    -0.12130
C146        C  0.20017873  0.01338436  0.22614240     0.01520
C147        C  0.19661954  0.01794996  0.26677417    -0.10660
C148        C  0.22902509  0.01021288  0.29172977     0.04010
C149        C  0.26800715  0.00590438  0.27436389    -0.10080
H150        H  0.23725243  0.99904132  0.17671635     0.09610
H151        H  0.16713134  0.02329945  0.27929752     0.07140
H152        H  0.29397208  0.00325658  0.29354973     0.06980
C153        C  0.97822119  0.76487967  0.71781551     0.04020
C154        C  0.97559040  0.79081309  0.75029016    -0.12130
C155        C  0.00091438  0.78437534  0.78303775     0.01520
C156        C  0.01751454  0.74626968  0.78796939    -0.10660
C157        C  0.00249873  0.71458500  0.76572251     0.04010
C158        C  0.98709732  0.72392052  0.72673804    -0.10080
H159        H  0.96000256  0.81883347  0.74636837     0.09610
H160        H  0.03787764  0.73973318  0.81237614     0.07140
H161        H  0.98245655  0.70074472  0.70460262     0.06980
C162        C  0.22787648  0.98113420  0.72937868     0.04020
C163        C  0.21258178  0.95003765  0.75299111    -0.12130
C164        C  0.22106400  0.94903668  0.79405707     0.01520
C165        C  0.25714690  0.96611285  0.80639089    -0.10660
C166        C  0.27899651  0.99121098  0.78128763     0.04010
C167        C  0.26271554  0.00161973  0.74310922    -0.10080
H168        H  0.18842244  0.93208803  0.74123495     0.09610
H169        H  0.26698338  0.96379272  0.83722923     0.07140
H170        H  0.27650663  0.02461751  0.72489754     0.06980
C171        C  0.01076177  0.23565543  0.71836288     0.04020
C172        C  0.03636291  0.21197753  0.74122705    -0.12130
C173        C  0.04758890  0.22388919  0.77910423     0.01520
C174        C  0.04334627  0.26298793  0.79079589    -0.10660
C175        C  0.02037419  0.29001053  0.76840506     0.04010
C176        C  0.00251483  0.27579255  0.73162329    -0.10080
H177        H  0.04100533  0.18085984  0.73305433     0.09610
H178        H  0.05183231  0.27005335  0.82147000     0.07140
H179        H  0.98259380  0.29473377  0.71444847     0.06980
C180        C  0.76925388  0.98630979  0.71715274     0.04020
C181        C  0.79563663  0.95898608  0.73452341    -0.12130
C182        C  0.79312419  0.94978947  0.77464938     0.01520
C183        C  0.75789367  0.95720743  0.79545869    -0.10660
C184        C  0.73025691  0.98526750  0.78080932     0.04010
C185        C  0.73622341  0.00045415  0.74066222    -0.10080
H186        H  0.82330747  0.95164746  0.71916373     0.09610
H187        H  0.75584571  0.94674460  0.82619781     0.07140
H188        H  0.71662711  0.02326894  0.72861918     0.06980
O189        O  0.56180522  0.11464447  0.01119608    -0.74400
O190        O  0.61361628  0.06989115  0.01189714    -0.53310
C191        C  0.59921666  0.10618682  0.01144956     0.79330
O192        O  0.43248486  0.99228276  0.11988890    -0.59000
O193        O  0.38500153  0.99237868  0.07059945    -0.52030
C194        C  0.39593683  0.99228334  0.10819612     0.71340
O195        O  0.56068628  0.99604384  0.12435175    -0.73560
O196        O  0.61210465  0.99974574  0.07910050    -0.54120
C197        C  0.59777109  0.99776871  0.11548220     0.77340
O198        O  0.43166990  0.10994339  0.00664329    -0.58700
O199        O  0.38539386  0.06029057  0.00665769    -0.51820
C200        C  0.39524826  0.09792768  0.00614079     0.73940
Zr201      Zr  0.49784172  0.08070090  0.01070157     2.54710
O202        O  0.49534399  0.12369800  0.06954701    -0.79270
O203        O  0.49359155  0.13337721  0.96026183    -0.92690
Zr204      Zr  0.49807842  0.99421391  0.08956046     2.64680
O205        O  0.49675948  0.04542662  0.14147357    -0.97640
O206        O  0.49834456  0.93570656  0.13322566    -0.79700
O207        O  0.53821708  0.03928728  0.05194090    -0.83060
O208        O  0.45811585  0.03639223  0.04912727    -2.17770
O209        O  0.43863584  0.00370119  0.89103194    -0.66450
O210        O  0.38802215  0.00017949  0.93707502    -0.51020
C211        C  0.40139609  0.00291774  0.90046067     0.72320
O212        O  0.57115999  0.88736657  0.00246209    -0.59360
O213        O  0.61883384  0.93605259  0.00834369    -0.51330
C214        C  0.60777388  0.89876354  0.00503760     0.74120
O215        O  0.44092780  0.88153768  0.00162751    -0.70750
O216        O  0.38941321  0.92664190  0.00265218    -0.49430
C217        C  0.40362656  0.89035017  0.00171328     0.75510
O218        O  0.56932042  0.00634614  0.89455687    -0.66080
O219        O  0.61685503  0.00306156  0.94326833    -0.53280
C220        C  0.60603676  0.00532093  0.90567497     0.73890
Zr221      Zr  0.50343140  0.00217327  0.92430989     2.77540
O222        O  0.50800870  0.94940572  0.87440875    -0.96830
O223        O  0.50335468  0.05824024  0.87752685    -0.77650
Zr224      Zr  0.50452291  0.91588250  0.00368259     2.70070
O225        O  0.50406925  0.86728928  0.94954817    -0.78900
O226        O  0.50751141  0.86744044  0.05831370    -0.97980
Zr227      Zr  0.58225541  0.00152137  0.00981787     2.21500
Zr228      Zr  0.42037035  0.99482024  0.00461446     2.11130
O229        O  0.46388812  0.95685110  0.96208358    -2.46670
O230        O  0.54410656  0.96028392  0.96491960    -0.78690
O231        O  0.46074982  0.03988663  0.96613659    -0.70890
O232        O  0.54157366  0.95652966  0.04827969    -2.31850
O233        O  0.54081353  0.04348738  0.96832792    -2.28050
O234        O  0.46106474  0.95262012  0.04585007    -0.72650
H235        H  0.44039005  0.05201214  0.06611028     0.79350
H236        H  0.55829600  0.93958885  0.06490589     0.80440
H237        H  0.44836533  0.94028717  0.94414882     0.82660
H238        H  0.55696450  0.06149189  0.95259682     0.80270
H239        H  0.52429213  0.92238776  0.12833818     0.43300
H240        H  0.48248413  0.87159634  0.07355104     0.42270
H241        H  0.51755640  0.88119873  0.92712916     0.41950
H242        H  0.48940989  0.92850543  0.88397548     0.39890
H243        H  0.48082779  0.07529570  0.88628319     0.43020
H244        H  0.51074219  0.12400084  0.93805133     0.37800
H245        H  0.51838880  0.11521452  0.08620540     0.43920
H246        H  0.47299097  0.06198286  0.13529682     0.40330
H247        H  0.49480250  0.96069456  0.85031943     0.45250
H248        H  0.50802770  0.15650072  0.97185156     0.43980
H249        H  0.48967034  0.03088696  0.16639280     0.44110
H250        H  0.50391403  0.84117752  0.04509482     0.44470
O251        O  0.11429795  0.43656156  0.01141209    -0.74400
O252        O  0.06897167  0.38580364  0.00847250    -0.53310
C253        C  0.10548247  0.39918194  0.01187385     0.79330
O254        O  0.99798003  0.56404673  0.11930656    -0.59000
O255        O  0.99933659  0.61443173  0.07258122    -0.52030
C256        C  0.99800785  0.60105473  0.10951182     0.71340
O257        O  0.00919639  0.43607968  0.11864669    -0.73560
O258        O  0.00673190  0.38571188  0.07214764    -0.54120
C259        C  0.00960576  0.39912153  0.10868793     0.77340
O260        O  0.11387268  0.56605800  0.00201120    -0.58700
O261        O  0.06648230  0.61552728  0.00092542    -0.51820
C262        C  0.10343323  0.60295317  0.00092275     0.73940
Zr263      Zr  0.08240535  0.50101410  0.00184421     2.54710
O264        O  0.13798794  0.50362588  0.04899207    -0.79270
O265        O  0.12242334  0.49998327  0.94094111    -0.92690
Zr266      Zr  0.00293052  0.50034683  0.08669963     2.64680
O267        O  0.05982719  0.50358641  0.13238964    -0.97640
O268        O  0.95101642  0.49589553  0.13761575    -0.79700
O269        O  0.04326844  0.46060476  0.04470363    -0.83060
O270        O  0.04266555  0.54126679  0.04462654    -2.17770
O271        O  0.00102586  0.56390579  0.88903260    -0.66450
O272        O  0.99813292  0.61432024  0.93534088    -0.51020
C273        C  0.99984175  0.60106807  0.89843142     0.72320
O274        O  0.88712165  0.43315979  0.01037027    -0.59360
O275        O  0.93439044  0.38387237  0.00887090    -0.51330
C276        C  0.89731193  0.39609274  0.01060234     0.74120
O277        O  0.88586780  0.56306599  0.00668685    -0.70750
O278        O  0.93149282  0.61420926  0.00480656    -0.49430
C279        C  0.89505084  0.60028646  0.00545792     0.75510
O280        O  0.99378933  0.43524407  0.89032816    -0.66080
O281        O  0.00139258  0.38540663  0.93708978    -0.53280
C282        C  0.99764451  0.39845517  0.90031102     0.73890
Zr283      Zr  0.99751194  0.49961755  0.92211327     2.77540
O284        O  0.94091912  0.50191785  0.87597043    -0.96830
O285        O  0.04862271  0.49451163  0.87058008    -0.77650
Zr286      Zr  0.91825031  0.49859407  0.00663623     2.70070
O287        O  0.87338648  0.49915473  0.94917178    -0.78900
O288        O  0.86807583  0.49809445  0.05951058    -0.97980
Zr289      Zr  0.00137754  0.41816256  0.00487286     2.21500
Zr290      Zr  0.99930312  0.58204745  0.00404517     2.11130
O291        O  0.95709932  0.53981341  0.96391793    -2.46670
O292        O  0.95789403  0.45832239  0.96409389    -0.78690
O293        O  0.03978897  0.54087626  0.96146109    -0.70890
O294        O  0.96074058  0.45914033  0.04755224    -2.31850
O295        O  0.04129292  0.45957199  0.96151091    -2.28050
O296        O  0.95960297  0.53995368  0.04683645    -0.72650
H297        H  0.05975539  0.55800610  0.06102809     0.79350
H298        H  0.94484565  0.44259085  0.06526717     0.80440
H299        H  0.93970372  0.55597543  0.94733763     0.82660
H300        H  0.05778746  0.44328397  0.94440446     0.80270
H301        H  0.92609098  0.49077651  0.12243048     0.43300
H302        H  0.87330954  0.52259362  0.07533597     0.42270
H303        H  0.88491333  0.47936003  0.93042562     0.41950
H304        H  0.92880485  0.52867058  0.87964158     0.39890
H305        H  0.07247916  0.50716314  0.88265157     0.43020
H306        H  0.12762927  0.47134877  0.93557930     0.37800
H307        H  0.12587573  0.49725533  0.07533412     0.43920
H308        H  0.07154445  0.53050299  0.12841715     0.40330
H309        H  0.95316863  0.50303016  0.84895669     0.45250
H310        H  0.14860973  0.51124756  0.94892301     0.43980
H311        H  0.04776695  0.50460933  0.15948600     0.44110
H312        H  0.84249575  0.50345596  0.04549496     0.44470
C313        C  0.27112198  0.22435519  0.98224344     0.04020
C314        C  0.26129322  0.25876390  0.00693322    -0.12130
C315        C  0.22583210  0.28174926  0.99818664     0.01520
C316        C  0.20161625  0.26961372  0.96651387    -0.10660
C317        C  0.20654314  0.23182889  0.95138657     0.04010
C318        C  0.24500517  0.21633571  0.95020668    -0.10080
H319        H  0.27854714  0.26554518  0.03354738     0.09610
H320        H  0.17291583  0.28414364  0.96193711     0.07140
H321        H  0.25065784  0.19192954  0.92979679     0.06980
C322        C  0.28629251  0.76855962  0.99545974     0.04020
C323        C  0.25930677  0.79986000  0.99215847    -0.12130
C324        C  0.21894524  0.79286142  0.99220058     0.01520
C325        C  0.20368569  0.75463267  0.99248141    -0.10660
C326        C  0.22905650  0.72154484  0.99221699     0.04010
C327        C  0.27147418  0.72820534  0.99502840    -0.10080
H328        H  0.26977593  0.83066512  0.99194044     0.09610
H329        H  0.17146813  0.75070545  0.99274447     0.07140
H330        H  0.29192926  0.70320519  0.99678742     0.06980
C331        C  0.77118143  0.27624696  0.00605882     0.04020
C332        C  0.79248840  0.24830467  0.98370959    -0.12130
C333        C  0.77388393  0.21531699  0.96639111     0.01520
C334        C  0.73280052  0.21202250  0.96767662    -0.10660
C335        C  0.71056319  0.23516864  0.99444206     0.04010
C336        C  0.72960994  0.26874433  0.01337605    -0.10080
H337        H  0.82468020  0.25127156  0.98161153     0.09610
H338        H  0.71927625  0.18623097  0.95333788     0.07140
H339        H  0.71296404  0.28774134  0.03360085     0.06980
C340        C  0.76973740  0.71275181  0.99030544     0.04020
C341        C  0.79739831  0.73655810  0.97010361    -0.12130
C342        C  0.79275139  0.77746540  0.96853469     0.01520
C343        C  0.75732360  0.79502697  0.98078583    -0.10660
C344        C  0.72693813  0.77245554  0.99817358     0.04010
C345        C  0.73345375  0.73055635  0.00443897    -0.10080
H346        H  0.82577538  0.72399024  0.96059857     0.09610
H347        H  0.75421670  0.82729485  0.97876171     0.07140
H348        H  0.71160910  0.71273322  0.02036798     0.06980
C349        C  0.78638493  0.67242827  0.00089139    -0.04450
C350        C  0.79708679  0.64713205  0.96864704    -0.01560
C351        C  0.83307433  0.62475830  0.96982804     0.03430
C352        C  0.85930099  0.62745970  0.00324411    -0.04450
C353        C  0.84654469  0.64957464  0.03697418    -0.01550
C354        C  0.80924229  0.66994676  0.03652675     0.03420
C355        C  0.77277685  0.64744105  0.93255369     0.38070
C356        C  0.87279300  0.65354806  0.07124127     0.38060
C357        C  0.79553173  0.69111434  0.07183141     0.36490
C358        C  0.84427453  0.60075101  0.93540184     0.36490
N359        N  0.78441946  0.70795968  0.09999139    -0.38330
N360        N  0.85331341  0.58185796  0.90780222    -0.38330
N361        N  0.89404569  0.65824202  0.09822623    -0.37780
N362        N  0.75342272  0.64782285  0.90371963    -0.37780
C363        C  0.79574057  0.31196585  0.01919577    -0.04450
C364        C  0.79245674  0.34778202  0.99712616    -0.01560
C365        C  0.82531243  0.37462615  0.99403085     0.03430
C366        C  0.86260736  0.36654454  0.01354143    -0.04450
C367        C  0.86464093  0.33205518  0.03831533    -0.01550
C368        C  0.83139539  0.30558213  0.04162924     0.03420
C369        C  0.75576203  0.35571575  0.97518164     0.38070
C370        C  0.90110187  0.32327164  0.06017519     0.38060
C371        C  0.83442984  0.27014339  0.06664898     0.36490
C372        C  0.82065486  0.40928585  0.96823366     0.36490
N373        N  0.83662493  0.24181210  0.08656082    -0.38330
N374        N  0.81553052  0.43648420  0.94732251    -0.38330
N375        N  0.93035840  0.31608644  0.07732162    -0.38180
N376        N  0.72644975  0.36204691  0.95779094    -0.37780
C377        C  0.13790576  0.63188119  0.99817827    -0.04450
C378        C  0.14461028  0.65355148  0.96241297    -0.01560
C379        C  0.17968459  0.67687442  0.95759729     0.03430
C380        C  0.20701005  0.68225558  0.98986441    -0.04450
C381        C  0.20170422  0.65870012  0.02466012    -0.01550
C382        C  0.16833230  0.63249403  0.02809841     0.03420
C383        C  0.11542564  0.65186558  0.93028182     0.38070
C384        C  0.22962791  0.66284508  0.05769025     0.38060
C385        C  0.16526671  0.60646109  0.06279884     0.36490
C386        C  0.18676587  0.69742276  0.91985855     0.36490
N387        N  0.16329888  0.58543675  0.09037861    -0.38330
N388        N  0.19248246  0.71357782  0.88965189    -0.38330
N389        N  0.25198583  0.66625105  0.08401884    -0.37780
N390        N  0.09204429  0.65102894  0.90468275    -0.37780
C391        C  0.14089147  0.37059573  0.01694992    -0.04450
C392        C  0.13672538  0.33310488  0.03651635    -0.01560
C393        C  0.17009517  0.30709474  0.04117094     0.03430
C394        C  0.20711018  0.31518312  0.02190732    -0.04450
C395        C  0.21275610  0.35405776  0.00681931    -0.01550
C396        C  0.18045523  0.38164665  0.00452248     0.03420
C397        C  0.09806083  0.32040167  0.05150949     0.38070
C398        C  0.25157673  0.36431599  0.99039021     0.38060
C399        C  0.18871072  0.42053150  0.98711561     0.36490
C400        C  0.16552422  0.27089363  0.06459384     0.36490
N401        N  0.19672334  0.45136302  0.97348968    -0.38330
N402        N  0.16038629  0.24311351  0.08472166    -0.38330
N403        N  0.28258688  0.37238280  0.97735195    -0.37780
N404        N  0.06730032  0.30978273  0.06328298    -0.37780
C405        C  0.62605342  0.14248172  0.00932454    -0.04450
C406        C  0.64880487  0.15542184  0.04269994    -0.01560
C407        C  0.67044020  0.19219207  0.04142205     0.03430
C408        C  0.67150161  0.21556137  0.00593274    -0.04450
C409        C  0.64501563  0.20489070  0.97442656    -0.01550
C410        C  0.62342210  0.16835063  0.97562796     0.03420
C411        C  0.65350429  0.12908228  0.07684031     0.38070
C412        C  0.64354079  0.22969853  0.93864452     0.38060
C413        C  0.60113450  0.15576271  0.94044259     0.36490
C414        C  0.69495478  0.20398334  0.07531967     0.36490
N415        N  0.58403399  0.14562810  0.91199204    -0.38330
N416        N  0.71450035  0.21349990  0.10236758    -0.38330
N417        N  0.64255217  0.24937347  0.91002677    -0.37780
N418        N  0.65909987  0.10779019  0.10365148    -0.37780
C419        C  0.37622682  0.85468883  0.00106477    -0.04450
C420        C  0.37355472  0.83030197  0.96638106    -0.01560
C421        C  0.34934334  0.79534629  0.96622641     0.03430
C422        C  0.32825318  0.78348147  0.00099137    -0.04450
C423        C  0.33618843  0.80448547  0.03714866    -0.01550
C424        C  0.35863076  0.84057344  0.03691013     0.03420
C425        C  0.39480876  0.84185254  0.93032283     0.38070
C426        C  0.31778629  0.79071629  0.07401911     0.38060
C427        C  0.36305878  0.86361450  0.07349129     0.36490
C428        C  0.34347582  0.77310246  0.92939891     0.36490
N429        N  0.36646474  0.88223664  0.10255169    -0.38330
N430        N  0.33877125  0.75525265  0.90003840    -0.38330
N431        N  0.30335093  0.77951567  0.10351174    -0.37780
N432        N  0.41198485  0.85089163  0.90159491    -0.37780
C433        C  0.63811972  0.86499154  0.00484809    -0.04450
C434        C  0.63301837  0.83172779  0.97857938    -0.01560
C435        C  0.65862335  0.79788512  0.98073187     0.03430
C436        C  0.69030188  0.79643114  0.00865510    -0.04450
C437        C  0.69430997  0.82861910  0.03614078    -0.01550
C438        C  0.66945168  0.86304320  0.03342611     0.03420
C439        C  0.60388189  0.83352096  0.94635688     0.38070
C440        C  0.72605205  0.82717986  0.06585587     0.38060
C441        C  0.67783287  0.89724620  0.05870416     0.36490
C442        C  0.65420065  0.76552443  0.95207190     0.36490
N443        N  0.68547175  0.92479801  0.07824783    -0.38330
N444        N  0.65073710  0.73969233  0.92924877    -0.38330
N445        N  0.75138250  0.82590987  0.08953693    -0.37780
N446        N  0.58145621  0.83427425  0.91988536    -0.37780
C447        C  0.30223817  0.19184221  0.99234062    -0.04450
C448        C  0.34166657  0.20191144  0.00389480    -0.01560
C449        C  0.37128871  0.17177414  0.01019753     0.03430
C450        C  0.36281604  0.13017969  0.00374082    -0.04450
C451        C  0.32325121  0.12005554  0.99267328    -0.01550
C452        C  0.29348457  0.14982871  0.98779178     0.03420
C453        C  0.35283106  0.24374261  0.00705133     0.38070
C454        C  0.31262673  0.07870161  0.98363214     0.38060
C455        C  0.25421269  0.13491758  0.97662518     0.36490
C456        C  0.41073635  0.18468421  0.02295457     0.36490
N457        N  0.22453517  0.12019963  0.96652065    -0.38330
N458        N  0.44209938  0.19549071  0.03289656    -0.38330
N459        N  0.30364761  0.04610292  0.97610220    -0.37780
N460        N  0.36192242  0.27706876  0.00944270    -0.37780
C461        C  0.69810382  0.99893647  0.81023478    -0.04450
C462        C  0.70794969  0.00986206  0.85057541    -0.01560
C463        C  0.67817380  0.01377433  0.88067667     0.03430
C464        C  0.63742884  0.00611458  0.87208939    -0.04450
C465        C  0.62724987  0.99906386  0.83073518    -0.01550
C466        C  0.65722807  0.99521863  0.80060971     0.03420
C467        C  0.74900720  0.01631920  0.86285402     0.38070
C468        C  0.58597802  0.99560438  0.81784617     0.38060
C469        C  0.64583223  0.98527198  0.75974795     0.36490
C470        C  0.69014435  0.02670618  0.92059062     0.36490
N471        N  0.63669754  0.97741119  0.72717216    -0.38330
N472        N  0.69999254  0.03715656  0.95221541    -0.38330
N473        N  0.55338460  0.99329756  0.80639689    -0.37780
N474        N  0.78075267  0.02123913  0.87572655    -0.37780
C475        C  0.01269127  0.32877872  0.79085005    -0.04450
C476        C  0.97386978  0.33935464  0.80394118    -0.01560
C477        C  0.96857299  0.36152206  0.84011834     0.03430
C478        C  0.00176322  0.37104427  0.86496849    -0.04450
C479        C  0.04041065  0.36397250  0.84976162    -0.01550
C480        C  0.04564638  0.34601946  0.81173071     0.03420
C481        C  0.93946938  0.32794985  0.78018011     0.38070
C482        C  0.07511105  0.37495999  0.87357155     0.38060
C483        C  0.08573527  0.34150207  0.79572251     0.36490
C484        C  0.92903030  0.37482919  0.85168206     0.36490
N485        N  0.11769827  0.33753228  0.78314667    -0.38330
N486        N  0.89755918  0.38592919  0.86073027    -0.38330
N487        N  0.10268218  0.38328182  0.89286908    -0.37780
N488        N  0.91187019  0.31925653  0.76108857    -0.37780
C489        C  0.31747324  0.00531658  0.79948696    -0.04450
C490        C  0.34911261  0.97743287  0.80076263    -0.01560
C491        C  0.37544274  0.97595495  0.83411460     0.03430
C492        C  0.37269577  0.00452145  0.86545030    -0.04450
C493        C  0.34525092  0.03639053  0.86055017    -0.01550
C494        C  0.31660283  0.03573907  0.82897088     0.03420
C495        C  0.35209626  0.94772486  0.76919771     0.38070
C496        C  0.34828981  0.07124567  0.88598643     0.38060
C497        C  0.28440913  0.06472472  0.82833687     0.36490
C498        C  0.40388853  0.94340763  0.83677001     0.36490
N499        N  0.25847947  0.08762719  0.82798334    -0.38330
N500        N  0.42594841  0.91680318  0.83794865    -0.38330
N501        N  0.35157625  0.10005402  0.90486560    -0.37780
N502        N  0.35444238  0.92418807  0.74388884    -0.37780
C503        C  0.99526976  0.67749217  0.79064911    -0.04450
C504        C  0.02597063  0.64908999  0.79577484    -0.01560
C505        C  0.02775107  0.62472177  0.83088364     0.03430
C506        C  0.99945682  0.62920853  0.86256636    -0.04450
C507        C  0.96752607  0.65619741  0.85637582    -0.01550
C508        C  0.96499284  0.67934982  0.82053386     0.03420
C509        C  0.05663468  0.64604300  0.76527707     0.38070
C510        C  0.93743364  0.66083674  0.88725869     0.38060
C511        C  0.93251394  0.70773941  0.81569900     0.36490
C512        C  0.06018060  0.59625723  0.83489727     0.36490
N513        N  0.90680459  0.73059943  0.81192104    -0.38330
N514        N  0.08645070  0.57391157  0.83763226    -0.38330
N515        N  0.91366726  0.66505518  0.91207076    -0.37780
N516        N  0.08096362  0.64355720  0.74077031    -0.37780
C517        C  0.36510294  0.99517579  0.14135164    -0.04450
C518        C  0.33313306  0.02237037  0.13761990    -0.01560
C519        C  0.30886106  0.03156671  0.17086982     0.03430
C520        C  0.30958785  0.00750428  0.20619875    -0.04450
C521        C  0.34178352  0.98055987  0.21077114    -0.01550
C522        C  0.37035948  0.97578122  0.17934102     0.03420
C523        C  0.32387421  0.04066081  0.09935993     0.38070
C524        C  0.34577081  0.95781745  0.24761248     0.38060
C525        C  0.40439364  0.94982558  0.18618889     0.36490
C526        C  0.28208201  0.06572255  0.16803603     0.36490
N527        N  0.43161168  0.92937095  0.19242542    -0.38330
N528        N  0.26086624  0.09291183  0.16520672    -0.38330
N529        N  0.34939869  0.93986752  0.27714970    -0.37780
N530        N  0.31488605  0.05475660  0.06897958    -0.37780
C531        C  0.99700700  0.62865128  0.14522968    -0.04450
C532        C  0.96328048  0.62900458  0.17110377    -0.01560
C533        C  0.96293432  0.65322578  0.20614231     0.03430
C534        C  0.99744335  0.67450561  0.21811998    -0.04450
C535        C  0.03319556  0.66739141  0.19658817    -0.01550
C536        C  0.03252706  0.64676372  0.15933761     0.03420
C537        C  0.92881469  0.60438689  0.16180279     0.38070
C538        C  0.07017356  0.68438464  0.21156183     0.38060
C539        C  0.06853405  0.64427207  0.13553308     0.36490
C540        C  0.92628061  0.65854449  0.22856390     0.36490
N541        N  0.09727689  0.64279470  0.11640358    -0.38330
N542        N  0.89699854  0.66294113  0.24643849    -0.38330
N543        N  0.09967624  0.69771942  0.22384645    -0.37780
N544        N  0.90143326  0.58447014  0.15457516    -0.37780
C545        C  0.67386114  0.99512752  0.22129526    -0.04450
C546        C  0.65511287  0.03105776  0.20916454    -0.01560
C547        C  0.62962260  0.03169829  0.17513328     0.03430
C548        C  0.62462237  0.99695775  0.15139710    -0.04450
C549        C  0.63763842  0.96002949  0.16754528    -0.01550
C550        C  0.66184150  0.95912198  0.20248544     0.03420
C551        C  0.66496564  0.06796030  0.22967129     0.38070
C552        C  0.62501344  0.92287867  0.14905299     0.38060
C553        C  0.67817448  0.92150627  0.21674575     0.36490
C554        C  0.60730890  0.06762902  0.16549687     0.36490
N555        N  0.69136460  0.89157044  0.22818321    -0.38330
N556        N  0.58885493  0.09602058  0.15819386    -0.38330
N557        N  0.61455727  0.89319773  0.13460156    -0.37780
N558        N  0.67295909  0.09744783  0.24596540    -0.37780
C559        C  0.78338592  0.00067838  0.67661860    -0.04450
C560        C  0.80657404  0.03602118  0.67379408    -0.01560
C561        C  0.84117003  0.03748983  0.64883660     0.03430
C562        C  0.85382071  0.00311632  0.62756410    -0.04450
C563        C  0.82644110  0.97078113  0.62501021    -0.01550
C564        C  0.79084460  0.97048346  0.64796386     0.03420
C565        C  0.79359323  0.07148793  0.69477914     0.38070
C566        C  0.83468397  0.93713481  0.59911594     0.38060
C567        C  0.76380379  0.93659653  0.64582639     0.36490
C568        C  0.86136000  0.07520493  0.64208584     0.36490
N569        N  0.74219287  0.90961094  0.64418262    -0.38330
N570        N  0.87645052  0.10570427  0.63567594    -0.38330
N571        N  0.83996142  0.90989074  0.57851366    -0.37780
N572        N  0.78311165  0.10052891  0.71040037    -0.37780
C573        C  0.99355085  0.21328707  0.68304415    -0.04450
C574        C  0.01666460  0.21255682  0.64786188    -0.01560
C575        C  0.01945749  0.17730388  0.62423472     0.03430
C576        C  0.99834173  0.14152424  0.63484107    -0.04450
C577        C  0.97377931  0.14301953  0.66925348    -0.01550
C578        C  0.96935648  0.17921957  0.69123741     0.03420
C579        C  0.04011590  0.24768973  0.63772014     0.38070
C580        C  0.95490599  0.10681754  0.68389540     0.38060
C581        C  0.94029468  0.18089562  0.72327238     0.36490
C582        C  0.04765397  0.17748020  0.59128490     0.36490
N583        N  0.91571719  0.18112446  0.74764214    -0.38330
N584        N  0.07090552  0.17890864  0.56568224    -0.38330
N585        N  0.94064330  0.07779057  0.69634531    -0.37780
N586        N  0.05868053  0.27580356  0.62970801    -0.37780
C587        C  0.13254248  0.99500521  0.64272270    -0.04450
C588        C  0.16471003  0.96793208  0.63600835    -0.01560
C589        C  0.19899146  0.96776824  0.66112091     0.03430
C590        C  0.20161159  0.99332501  0.69458716    -0.04450
C591        C  0.17028970  0.02130202  0.70078131    -0.01550
C592        C  0.13619821  0.02231890  0.67498913     0.03420
C593        C  0.16179861  0.93798071  0.60472243     0.38070
C594        C  0.17246722  0.04807534  0.73489434     0.38060
C595        C  0.10499655  0.05161283  0.68168072     0.36490
C596        C  0.23134302  0.93990938  0.65356469     0.36490
N597        N  0.08008023  0.07500817  0.68701224    -0.38330
N598        N  0.25732070  0.91789425  0.64755404    -0.38330
N599        N  0.17432791  0.06947215  0.76210179    -0.37780
N600        N  0.15993959  0.91340979  0.58038408    -0.37780
C601        C  0.98527552  0.78666873  0.67868170    -0.04450
C602        C  0.95264845  0.79848200  0.65462986    -0.01560
C603        C  0.95522566  0.83302372  0.62967664     0.03430
C604        C  0.98947725  0.85821760  0.63055289    -0.04450
C605        C  0.02366274  0.84383270  0.65089982    -0.01550
C606        C  0.02179085  0.80814088  0.67423147     0.03420
C607        C  0.91616655  0.77522478  0.65612899     0.38070
C608        C  0.06036827  0.86690047  0.64950447     0.38060
C609        C  0.05665984  0.79561490  0.69696658     0.36490
C610        C  0.92306367  0.84161388  0.60190975     0.36490
N611        N  0.08440698  0.78587552  0.71534027    -0.38330
N612        N  0.89781348  0.84730110  0.57885632    -0.38330
N613        N  0.08947167  0.88559701  0.64881138    -0.37780
N614        N  0.88713998  0.75642363  0.65717532    -0.37780
C615        C  0.14488263  0.00411614  0.38135817    -0.04450
C616        C  0.17257372  0.03633128  0.38248244    -0.01560
C617        C  0.20739732  0.03573014  0.35818701     0.03430
C618        C  0.21606152  0.00230470  0.33392346    -0.04450
C619        C  0.19250814  0.96741045  0.33922318    -0.01550
C620        C  0.15598391  0.96903042  0.36067427     0.03420
C621        C  0.16446392  0.07093342  0.40733257     0.38070
C622        C  0.20362046  0.93121475  0.31810698     0.38060
C623        C  0.12940849  0.93482057  0.36063716     0.36490
C624        C  0.23281035  0.07071329  0.35542698     0.36490
N625        N  0.10794929  0.90769340  0.36009148    -0.38330
N626        N  0.25320768  0.09859197  0.35319438    -0.38330
N627        N  0.21270890  0.90228814  0.30144230    -0.37780
N628        N  0.15801495  0.09854864  0.42718412    -0.37780
C629        C  0.99186080  0.79411773  0.32223557    -0.04450
C630        C  0.96132660  0.82326308  0.32620465    -0.01560
C631        C  0.96887715  0.86008205  0.34558557     0.03430
C632        C  0.00248059  0.86455105  0.37069034    -0.04450
C633        C  0.02999467  0.83204432  0.37287226    -0.01550
C634        C  0.02603571  0.79837716  0.34681984     0.03420
C635        C  0.92227218  0.81558514  0.30908285     0.38070
C636        C  0.06346623  0.83400107  0.40044624     0.38060
C637        C  0.05729824  0.76854970  0.34473573     0.36490
C638        C  0.94388216  0.89424890  0.33662171     0.36490
N639        N  0.08219206  0.74458932  0.34309357    -0.38330
N640        N  0.92533202  0.92200488  0.32747329    -0.38330
N641        N  0.09016175  0.83541992  0.42254900    -0.37780
N642        N  0.89056237  0.80887945  0.29694253    -0.37780
C643        C  0.79689243  0.99913166  0.31833871    -0.04450
C644        C  0.81119717  0.96325088  0.33565032    -0.01560
C645        C  0.84457857  0.96372492  0.36197665     0.03430
C646        C  0.86651328  0.99949918  0.36826938    -0.04450
C647        C  0.85041870  0.03565954  0.35328289    -0.01550
C648        C  0.81540693  0.03554085  0.32928534     0.03420
C649        C  0.79275277  0.92557583  0.32466102     0.38070
C650        C  0.86940859  0.07324666  0.36323086     0.38060
C651        C  0.79903021  0.07289864  0.31434354     0.36490
C652        C  0.85600883  0.92740755  0.38296099     0.36490
N653        N  0.78564069  0.10263537  0.30261381    -0.38330
N654        N  0.86505864  0.89845566  0.39979790    -0.38330
N655        N  0.88436085  0.10341191  0.37108886    -0.37780
N656        N  0.77813712  0.89551964  0.31563028    -0.37780
C657        C  0.01773327  0.32281913  0.21403438    -0.04450
C658        C  0.05257703  0.33327394  0.19249338    -0.01560
C659        C  0.05011830  0.35830007  0.15811718     0.03430
C660        C  0.01249452  0.37110018  0.14349298    -0.04450
C661        C  0.97824234  0.36382034  0.16714559    -0.01550
C662        C  0.98103020  0.34065542  0.20261737     0.03420
C663        C  0.09059130  0.31622550  0.20444136     0.38070
C664        C  0.93984054  0.37975044  0.15460103     0.38060
C665        C  0.94523025  0.33168143  0.22545346     0.36490
C666        C  0.08632322  0.37158869  0.13834804     0.36490
N667        N  0.91674372  0.32431534  0.24367418    -0.38330
N668        N  0.11526147  0.38270942  0.12296379    -0.38330
N669        N  0.90924552  0.39243612  0.14448651    -0.37780
N670        N  0.12094450  0.30256090  0.21396979    -0.37780
C671        C  0.01316700  0.21358379  0.32648701    -0.04450
C672        C  0.04498460  0.18577025  0.32865316    -0.01560
C673        C  0.04116249  0.14982844  0.35122154     0.03430
C674        C  0.00696502  0.14289876  0.37517557    -0.04450
C675        C  0.97777847  0.17382416  0.37734410    -0.01550
C676        C  0.98053246  0.20829728  0.35258676     0.03420
C677        C  0.08089381  0.19344267  0.30558746     0.38070
C678        C  0.94367128  0.16991757  0.40376421     0.38060
C679        C  0.94849393  0.23751289  0.35195439     0.36490
C680        C  0.07223775  0.11978634  0.34912905     0.36490
N681        N  0.92300932  0.26090240  0.35133441    -0.38330
N682        N  0.09684735  0.09562803  0.34670329    -0.38330
N683        N  0.91607810  0.16792659  0.42454050    -0.37780
N684        N  0.10955131  0.19972321  0.28722402    -0.37780
C685        C  0.82780505  0.80300972  0.96337549    -0.04450
C686        C  0.85900489  0.80091210  0.99205392    -0.01560
C687        C  0.88791612  0.83093716  0.99341860     0.03430
C688        C  0.88401553  0.86455967  0.96816048    -0.04450
C689        C  0.85233631  0.86691850  0.93996613    -0.01550
C690        C  0.82601492  0.83475311  0.93577353     0.03420
C691        C  0.85964902  0.77055854  0.02325563     0.38070
C692        C  0.84332621  0.90363279  0.91855074     0.38060
C693        C  0.79523701  0.83554379  0.90490370     0.36490
C694        C  0.91862504  0.82922680  0.02441537     0.36490
N695        N  0.77072545  0.83624420  0.88034731    -0.38330
N696        N  0.94257132  0.82723146  0.04944779    -0.38330
N697        N  0.83368216  0.93286002  0.90261260    -0.37780
N698        N  0.86166848  0.74756522  0.04913833    -0.37780
C699        C  0.85984833  0.12358884  0.96156652    -0.04450
C700        C  0.86594245  0.16023452  0.94093919    -0.01560
C701        C  0.83376649  0.18605123  0.93450731     0.03430
C702        C  0.79850264  0.18004773  0.95659304    -0.04450
C703        C  0.79266537  0.14349406  0.97789020    -0.01550
C704        C  0.82217002  0.11404123  0.97785140     0.03420
C705        C  0.90567398  0.17424461  0.93086905     0.38070
C706        C  0.75908395  0.13739622  0.00449756     0.38060
C707        C  0.81495668  0.07678938  0.00000630     0.36490
C708        C  0.83839099  0.22092223  0.90853835     0.36490
N709        N  0.80890586  0.04754088  0.01772635    -0.38330
N710        N  0.84239833  0.24853059  0.88785448    -0.38330
N711        N  0.73351684  0.13075902  0.02675181    -0.37780
N712        N  0.93737680  0.18658517  0.92467398    -0.37780
C713        C  0.19257597  0.82678451  0.99479205    -0.04450
C714        C  0.17478758  0.84170846  0.95970425    -0.01560
C715        C  0.14977453  0.87483877  0.96242231     0.03430
C716        C  0.14372962  0.89310397  0.00003361    -0.04450
C717        C  0.16465531  0.88046787  0.03424004    -0.01550
C718        C  0.18797257  0.84603651  0.03202938     0.03420
C719        C  0.18205838  0.82291920  0.92110865     0.38070
C720        C  0.16234664  0.90268342  0.07140978     0.38060
C721        C  0.20579508  0.82947945  0.06818798     0.36490
C722        C  0.13092158  0.89030128  0.92640454     0.36490
N723        N  0.21938433  0.81610725  0.09722076    -0.38330
N724        N  0.11707023  0.90214359  0.89686750    -0.38330
N725        N  0.16194117  0.92054483  0.10107076    -0.37780
N726        N  0.18786909  0.80829969  0.89021190    -0.37780
C727        C  0.11119660  0.15500505  0.98815874    -0.04450
C728        C  0.14628874  0.15624025  0.01099010    -0.01560
C729        C  0.17585067  0.18382385  0.00123967     0.03430
C730        C  0.17388697  0.20480566  0.96383528    -0.04450
C731        C  0.13757448  0.20529812  0.94244219    -0.01550
C732        C  0.10515809  0.18271106  0.95659214     0.03420
C733        C  0.15258656  0.12874693  0.04441506     0.38070
C734        C  0.13321387  0.22994464  0.90675181     0.38060
C735        C  0.06577602  0.18973295  0.93994547     0.36490
C736        C  0.20712906  0.18943699  0.03094854     0.36490
N737        N  0.03441970  0.19730850  0.92737514    -0.38330
N738        N  0.23042470  0.19176082  0.05662086    -0.38330
N739        N  0.12973688  0.24968949  0.87837530    -0.37780
N740        N  0.15885010  0.10648039  0.07030414    -0.37780
C741        C  0.89606614  0.97411018  0.84435808    -0.04450
C742        C  0.89050234  0.93476571  0.83012122    -0.01560
C743        C  0.85678206  0.92612639  0.80640734     0.03430
C744        C  0.83029451  0.95723239  0.79640905    -0.04450
C745        C  0.83917802  0.99729674  0.80688505    -0.01550
C746        C  0.87016282  0.00508895  0.83328398     0.03420
C747        C  0.91599598  0.90261903  0.84428944     0.38070
C748        C  0.81475981  0.03075760  0.79370128     0.38060
C749        C  0.87061575  0.04301420  0.85462793     0.36490
C750        C  0.84842088  0.88551144  0.79379654     0.36490
N751        N  0.86870149  0.07202619  0.87332499    -0.38330
N752        N  0.84177604  0.85306716  0.78372884    -0.38330
N753        N  0.79566066  0.05841782  0.78549102    -0.37780
N754        N  0.93561742  0.87664693  0.85613550    -0.37780
C755        C  0.04079772  0.19448983  0.81020763    -0.04450
C756        C  0.00087080  0.18842683  0.82263100    -0.01560
C757        C  0.99152674  0.15485117  0.84490648     0.03430
C758        C  0.02249226  0.13260282  0.86186557    -0.04450
C759        C  0.06287365  0.14029224  0.85235135    -0.01550
C760        C  0.07183819  0.17015664  0.82435949     0.03420
C761        C  0.96931305  0.21692497  0.81362684     0.38070
C762        C  0.09491006  0.11857000  0.87207287     0.38060
C763        C  0.11243890  0.17633832  0.81065636     0.36490
C764        C  0.95025389  0.14230483  0.84793962     0.36490
N765        N  0.14480914  0.18124576  0.79953505    -0.38330
N766        N  0.91686708  0.13356895  0.84841869    -0.38330
N767        N  0.12072721  0.10184925  0.88803526    -0.37780
N768        N  0.94368420  0.23945454  0.80790177    -0.37780
C769        C  0.18763459  0.94838136  0.82392429    -0.04450
C770        C  0.15240403  0.96902521  0.81311568    -0.01560
C771        C  0.13645225  0.99737884  0.83910875     0.03430
C772        C  0.14686318  0.99662782  0.88043828    -0.04450
C773        C  0.17843793  0.97130238  0.89314402    -0.01550
C774        C  0.19721478  0.94579912  0.86524248     0.03420
C775        C  0.13032361  0.95949963  0.77678985     0.38070
C776        C  0.19188783  0.97105915  0.93455856     0.38060
C777        C  0.22608875  0.91631090  0.87883167     0.36490
C778        C  0.10780480  0.02600285  0.82290801     0.36490
N779        N  0.24921487  0.89294620  0.88976466    -0.38330
N780        N  0.08487644  0.04812454  0.80924888    -0.38330
N781        N  0.20315838  0.97100586  0.96743336    -0.37780
N782        N  0.11207575  0.95184575  0.74824329    -0.37780
C783        C  0.03369025  0.87705415  0.86544523    -0.04450
C784        C  0.03466127  0.83666180  0.87736943    -0.01560
C785        C  0.01826492  0.80793602  0.85219691     0.03430
C786        C  0.01167560  0.81698177  0.81109083    -0.04450
C787        C  0.01844814  0.85677276  0.79722409    -0.01550
C788        C  0.02825002  0.88689327  0.82453555     0.03420
C789        C  0.05092559  0.82447571  0.91608755     0.38070
C790        C  0.01181226  0.86943295  0.75615989     0.38060
C791        C  0.03003976  0.92812366  0.81013563     0.36490
C792        C  0.00434777  0.77111031  0.87071354     0.36490
N793        N  0.03059474  0.96075795  0.79843479    -0.38330
N794        N  0.99373272  0.74233086  0.88682152    -0.38330
N795        N  0.00487735  0.88330295  0.72511358    -0.37780
N796        N  0.06397932  0.81461382  0.94675960    -0.37780
C797        C  0.16478974  0.01559474  0.20137761    -0.04450
C798        C  0.15114005  0.05302540  0.18760044    -0.01560
C799        C  0.12097739  0.05426621  0.15855729     0.03430
C800        C  0.10506301  0.01812534  0.14428427    -0.04450
C801        C  0.11442548  0.98147080  0.16273550    -0.01550
C802        C  0.14544719  0.97992913  0.19056810     0.03420
C803        C  0.16875603  0.08977371  0.20251577     0.38070
C804        C  0.09281751  0.94533929  0.15266096     0.38060
C805        C  0.15852143  0.94168323  0.20670852     0.36490
C806        C  0.10557523  0.09223179  0.14413465     0.36490
N807        N  0.16892220  0.91103372  0.21909706    -0.38330
N808        N  0.09292390  0.12250290  0.13295822    -0.38330
N809        N  0.07593345  0.91610023  0.14536713    -0.37780
N810        N  0.18268995  0.11906242  0.21462612    -0.37780
C811        C  0.99468790  0.87348416  0.12171265    -0.04450
C812        C  0.96277632  0.87290743  0.14921824    -0.01560
C813        C  0.95877347  0.84060884  0.17527541     0.03430
C814        C  0.98951236  0.81215690  0.17776431    -0.04450
C815        C  0.02186632  0.81279511  0.15083802    -0.01550
C816        C  0.02347112  0.84251129  0.12144232     0.03420
C817        C  0.93431825  0.90552376  0.15156553     0.38070
C818        C  0.05404486  0.78377586  0.15388808     0.38060
C819        C  0.05579428  0.84193562  0.09234756     0.36490
C820        C  0.92215020  0.83575367  0.19795442     0.36490
N821        N  0.08153683  0.84089265  0.06924165    -0.38330
N822        N  0.89199620  0.83216092  0.21445555    -0.38330
N823        N  0.08005331  0.76105018  0.15575838    -0.37780
N824        N  0.91221900  0.93187271  0.15491446    -0.37780
C825        C  0.80802758  0.99864966  0.17205209    -0.04450
C826        C  0.81293072  0.96289092  0.15027653    -0.01560
C827        C  0.83478594  0.96349008  0.11458687     0.03430
C828        C  0.85199824  0.99964243  0.10180689    -0.04450
C829        C  0.84463126  0.03580048  0.12201684    -0.01550
C830        C  0.82269361  0.03531065  0.15754131     0.03420
C831        C  0.79660753  0.92552948  0.16536693     0.38070
C832        C  0.86030191  0.07322332  0.10647967     0.38060
C833        C  0.81551551  0.07219906  0.17934829     0.36490
C834        C  0.84167324  0.92679526  0.09238331     0.36490
N835        N  0.80980475  0.10154386  0.19679098    -0.38330
N836        N  0.84732860  0.89753632  0.07477588    -0.38330
N837        N  0.87239968  0.10307806  0.09378183    -0.37780
N838        N  0.78363657  0.89582246  0.17760561    -0.37780
C839        C  0.97046352  0.12963062  0.12709865    -0.04450
C840        C  0.99054359  0.11900757  0.16313899    -0.01560
C841        C  0.99826838  0.14812451  0.19176630     0.03430
C842        C  0.97951871  0.18569949  0.18859885    -0.04450
C843        C  0.95431652  0.19440778  0.15558155    -0.01550
C844        C  0.95179903  0.16729169  0.12359244     0.03420
C845        C  0.00399714  0.07853409  0.17187351     0.38070
C846        C  0.93136427  0.23124014  0.15438562     0.38060
C847        C  0.92969026  0.17798741  0.08759758     0.36490
C848        C  0.02794225  0.13953185  0.22261204     0.36490
N849        N  0.91226166  0.18651229  0.05877000    -0.38330
N850        N  0.05186091  0.13120412  0.24631074    -0.38330
N851        N  0.91302617  0.26057630  0.15361721    -0.37780
N852        N  0.01405165  0.04674419  0.18125801    -0.37780
loop_ 
_geom_bond_atom_site_label_1 
_geom_bond_atom_site_label_2 
_geom_bond_distance 
_geom_bond_site_symmetry_2 
_ccdc_geom_bond_type 
O1          Zr37   2.440   1_554  S
O1           C12   1.293       .  A
O2          Zr36   2.365   1_554  S
O2           C13   1.279   1_455  A
O3           Zr9   2.391   1_565  S
O3           C14   1.284       .  A
O4           Zr9   2.378   1_455  S
O4           C15   1.279       .  A
O5          Zr39   2.418       .  S
O5           C15   1.289       .  A
O6          Zr38   2.399   1_554  S
O6           C14   1.283       .  A
O7           Zr9   2.407   1_565  S
O7           C13   1.286       .  A
O8           Zr9   2.361       .  S
O8           C12   1.277       .  A
Zr9          O10   2.309   1_645  S
Zr9          O11   2.316       .  S
Zr9          O19   2.336   1_655  S
Zr9          O17   2.300   1_545  S
O10         Zr36   2.319   1_554  S
O10         Zr39   2.341   1_565  S
O11         Zr37   2.315   1_554  S
O11         Zr38   2.310   1_544  S
C12         C839   1.463       .  S
C13         C811   1.450       .  S
C14         C828   1.439       .  S
C15         C800   1.440       .  S
H16          O17   0.963       .  S
O17         Zr36   2.312   1_654  S
O17         Zr38   2.326   1_554  S
H18          O19   0.965       .  S
O19         Zr37   2.327   1_454  S
O19         Zr39   2.327       .  S
O20         Zr36   2.370       .  S
O20          C43   1.280       .  A
O21         Zr37   2.424   1_455  S
O21          C44   1.289       .  A
O22         Zr38   2.375       .  S
O22          C45   1.281       .  A
O23         Zr39   2.403   1_565  S
O23          C46   1.285       .  A
O24         Zr39   2.426   1_556  S
O24          C47   1.292       .  A
O25         Zr38   2.399   1_545  S
O25          C48   1.286       .  A
O26         Zr40   2.394   1_665  S
O26          C49   1.281       .  A
O27         Zr40   2.370       .  S
O27          C50   1.280       .  A
O28         Zr38   2.386       .  S
O28          C49   1.283       .  A
O29         Zr39   2.443   1_556  S
O29          C50   1.291       .  A
O30         Zr36   2.421   1_655  S
O30          C45   1.290       .  A
O31         Zr37   2.372       .  S
O31          C48   1.280       .  A
O32         Zr37   2.370   1_455  S
O32          C47   1.279       .  A
O33         Zr36   2.404   1_554  S
O33          C46   1.287       .  A
O34         Zr40   2.375   1_565  S
O34          C43   1.277       .  A
O35         Zr40   2.347       .  S
O35          C44   1.274       .  A
Zr36         O42   2.300   1_455  S
Zr36         O54   2.304       .  S
Zr37         O41   2.323   1_655  S
Zr37         O52   2.332       .  S
Zr38         O42   2.308       .  S
Zr38         O52   2.320   1_565  S
Zr39         O41   2.311   1_554  S
Zr39         O54   2.322   1_544  S
Zr40         O41   2.313       .  S
Zr40         O42   2.295   1_445  S
Zr40         O54   2.288   1_545  S
Zr40         O52   2.316   1_455  S
C43         C783   1.466       .  S
C44         C758   1.429       .  S
C45         C688   1.457       .  S
C46         C716   1.438       .  S
C47         C727   1.456       .  S
C48         C699   1.449       .  S
C49         C741   1.438       .  S
C50         C772   1.484   1_545  S
H51          O52   0.969       .  S
H53          O54   0.963       .  S
C55         C671   1.497       .  S
C55          C56   1.393   1_455  A
C55          C60   1.427       .  A
C56          C57   1.387       .  A
C56          H61   1.086       .  S
C57         C842   1.464       .  S
C57          C58   1.382   1_655  A
C58          C59   1.390       .  A
C58          H62   1.086       .  S
C59         C657   1.492       .  S
C59          C60   1.427       .  A
C60          H63   1.082       .  S
O64         Zr76   2.415       .  S
O64          C66   1.282       .  A
O65        Zr102   2.514       .  S
O65          C66   1.306       .  A
C66         C674   1.510       .  S
O67         Zr79   2.423   1_565  S
O67          C69   1.285       .  A
O68        Zr103   2.513   1_465  S
O68          C69   1.306       .  A
C69         C587   1.517       .  S
O70         Zr79   2.411       .  S
O70          C72   1.282       .  A
O71        Zr102   2.508       .  S
O71          C72   1.305       .  A
C72         C615   1.502       .  S
O73         Zr76   2.404   1_655  S
O73          C75   1.281       .  A
O74        Zr103   2.533       .  S
O74          C75   1.310       .  A
C75         C576   1.525       .  S
Zr76         O82   2.358       .  S
Zr76         O83   2.368       .  S
Zr76        O106   2.368   1_455  S
Zr76        O108   2.367   1_455  S
Zr76         O77   2.432       .  S
Zr76         O78   2.432   1_455  S
O77         H120   0.990       .  S
O78         H119   0.989       .  S
O78         H123   0.990       .  S
Zr79         O83   2.364       .  S
Zr79         O82   2.367       .  S
Zr79        O107   2.371   1_545  S
Zr79        O109   2.369   1_545  S
Zr79         O80   2.437       .  S
Zr79         O81   2.434   1_545  S
O80         H121   0.990       .  S
O80         H124   0.990       .  S
O81         H114   0.990       .  S
O82        Zr102   2.393       .  S
O83        Zr103   2.405   1_455  S
O83         H110   0.968       .  S
O84         Zr96   2.417       .  S
O84          C86   1.282       .  A
O85        Zr103   2.522       .  S
O85          C86   1.307       .  A
C86         C562   1.512       .  S
O87         Zr99   2.424       .  S
O87          C89   1.284       .  A
O88        Zr102   2.509   1_565  S
O88          C89   1.305       .  A
C89         C632   1.511       .  S
O90         Zr99   2.404   1_655  S
O90          C92   1.280       .  A
O91        Zr103   2.537   1_565  S
O91          C92   1.311       .  A
C92         C604   1.512       .  S
O93         Zr96   2.400       .  S
O93          C95   1.279       .  A
O94        Zr102   2.511   1_655  S
O94          C95   1.305       .  A
C95         C646   1.498   1_545  S
Zr96        O104   2.365   1_545  S
Zr96        O105   2.368   1_545  S
Zr96        O108   2.369       .  S
Zr96        O106   2.363       .  S
Zr96         O97   2.434   1_545  S
Zr96         O98   2.435       .  S
O97         H117   0.989       .  S
O97         H122   0.990       .  S
O98         H118   0.990       .  S
Zr99        O105   2.364   1_455  S
Zr99        O104   2.377   1_455  S
Zr99        O109   2.372       .  S
Zr99        O107   2.361       .  S
Zr99        O100   2.435   1_455  S
Zr99        O101   2.435       .  S
O100        H116   0.990       .  S
O101        H115   0.990       .  S
O101        H125   0.990       .  S
Zr102       O105   2.394   1_445  S
Zr102       O107   2.401   1_545  S
Zr102       O108   2.404   1_455  S
Zr103       O104   2.405   1_545  S
Zr103       O106   2.399       .  S
Zr103       O109   2.406   1_645  S
O104        H112   0.971       .  S
O107        H111   0.966       .  S
O108        H113   0.965       .  S
C126        C643   1.495       .  S
C126        C127   1.431       .  A
C126        C131   1.396       .  A
C127        C128   1.428       .  A
C127        H132   1.082       .  S
C128        C545   1.490       .  S
C128        C129   1.386       .  A
C129        C130   1.373       .  A
C129        H133   1.087       .  S
C130        C825   1.446       .  S
C130        C131   1.382       .  A
C131        H134   1.085       .  S
C135        C534   1.501       .  S
C135        C136   1.389       .  A
C135        C140   1.439       .  A
C136        C137   1.372       .  A
C136        H141   1.087       .  S
C137        C814   1.449       .  S
C137        C138   1.380       .  A
C138        C139   1.395       .  A
C138        H142   1.086       .  S
C139        C629   1.514       .  S
C139        C140   1.439       .  A
C140        H143   1.082       .  S
C144        C520   1.521       .  S
C144        C145   1.399       .  A
C144        C149   1.438       .  A
C145        C146   1.379       .  A
C145        H150   1.085   1_545  S
C146        C797   1.443       .  S
C146        C147   1.368       .  A
C147        C148   1.389       .  A
C147        H151   1.087       .  S
C148        C618   1.495       .  S
C148        C149   1.435       .  A
C149        H152   1.081       .  S
C153        C601   1.511       .  S
C153        C154   1.391       .  A
C153        C158   1.431       .  A
C154        C155   1.396   1_655  A
C154        H159   1.080       .  S
C155        C786   1.481       .  S
C155        C156   1.399       .  A
C156        C157   1.387       .  A
C156        H160   1.082       .  S
C157        C503   1.510   1_455  S
C157        C158   1.430   1_455  A
C158        H161   1.082       .  S
C162        C590   1.508       .  S
C162        C163   1.400       .  A
C162        C167   1.427   1_565  A
C163        C164   1.397       .  A
C163        H168   1.080       .  S
C164        C769   1.499       .  S
C164        C165   1.397       .  A
C165        C166   1.392       .  A
C165        H169   1.081       .  S
C166        C489   1.498   1_565  S
C166        C167   1.425   1_565  A
C167        H170   1.082       .  S
C171        C573   1.508   1_455  S
C171        C172   1.391       .  A
C171        C176   1.440       .  A
C172        C173   1.375       .  A
C172        H177   1.087       .  S
C173        C755   1.445       .  S
C173        C174   1.372       .  A
C174        C175   1.399       .  A
C174        H178   1.086       .  S
C175        C475   1.520       .  S
C175        C176   1.443       .  A
C176        H179   1.081   1_455  S
C180        C559   1.509   1_565  S
C180        C181   1.394       .  A
C180        C185   1.437   1_565  A
C181        C182   1.374       .  A
C181        H186   1.087       .  S
C182        C744   1.460       .  S
C182        C183   1.391       .  A
C183        C184   1.403       .  A
C183        H187   1.084       .  S
C184        C461   1.528       .  S
C184        C185   1.444   1_565  A
C185        H188   1.082       .  S
O189       Zr201   2.422       .  S
O189        C191   1.283       .  A
O190       Zr227   2.515       .  S
O190        C191   1.306       .  A
C191        C405   1.511       .  S
O192       Zr204   2.419       .  S
O192        C194   1.283       .  A
O193       Zr228   2.500       .  S
O193        C194   1.304       .  A
C194        C517   1.516       .  S
O195       Zr204   2.393       .  S
O195        C197   1.277       .  A
O196       Zr227   2.513   1_565  S
O196        C197   1.306       .  A
C197        C548   1.495       .  S
O198       Zr201   2.424       .  S
O198        C200   1.283       .  A
O199       Zr228   2.483   1_545  S
O199        C200   1.301       .  A
C200        C450   1.532       .  S
Zr201       O207   2.369       .  S
Zr201       O208   2.366       .  S
Zr201       O231   2.367   1_554  S
Zr201       O233   2.372   1_554  S
Zr201       O202   2.435       .  S
Zr201       O203   2.435   1_554  S
O202        H245   0.990       .  S
O203        H244   0.989       .  S
O203        H248   0.990       .  S
Zr204       O208   2.361   1_565  S
Zr204       O207   2.375   1_565  S
Zr204       O232   2.369       .  S
Zr204       O234   2.364       .  S
Zr204       O205   2.436   1_565  S
Zr204       O206   2.435       .  S
O205        H246   0.990       .  S
O205        H249   0.990       .  S
O206        H239   0.990       .  S
O207       Zr227   2.398       .  S
O208       Zr228   2.393   1_545  S
O208        H235   0.973       .  S
O209       Zr221   2.433       .  S
O209        C211   1.286       .  A
O210       Zr228   2.501   1_546  S
O210        C211   1.303       .  A
C211        C492   1.510       .  S
O212       Zr224   2.426       .  S
O212        C214   1.286       .  A
O213       Zr227   2.508   1_565  S
O213        C214   1.305       .  A
C214        C433   1.519       .  S
O215       Zr224   2.418       .  S
O215        C217   1.283       .  A
O216       Zr228   2.504       .  S
O216        C217   1.304       .  A
C217        C419   1.504       .  S
O218       Zr221   2.423       .  S
O218        C220   1.283       .  A
O219       Zr227   2.504   1_556  S
O219        C220   1.305       .  A
C220        C464   1.536       .  S
Zr221       O229   2.372   1_545  S
Zr221       O230   2.372   1_545  S
Zr221       O233   2.371       .  S
Zr221       O231   2.364       .  S
Zr221       O222   2.432   1_545  S
Zr221       O223   2.435       .  S
O222        H242   0.988       .  S
O222        H247   0.989       .  S
O223        H243   0.990       .  S
Zr224       O230   2.371   1_554  S
Zr224       O229   2.373   1_554  S
Zr224       O234   2.369       .  S
Zr224       O232   2.364       .  S
Zr224       O225   2.430   1_554  S
Zr224       O226   2.435       .  S
O225        H241   0.989       .  S
O226        H240   0.990       .  S
O226        H250   0.990       .  S
Zr227       O230   2.401   1_544  S
Zr227       O232   2.399   1_545  S
Zr227       O233   2.405   1_554  S
Zr228       O229   2.399   1_554  S
Zr228       O231   2.395   1_564  S
Zr228       O234   2.391       .  S
O229        H237   0.966       .  S
O232        H236   0.968       .  S
O233        H238   0.964       .  S
O251       Zr263   2.425       .  S
O251        C253   1.284       .  A
O252       Zr289   2.510       .  S
O252        C253   1.306       .  A
C253        C391   1.531       .  S
O254       Zr266   2.398   1_655  S
O254        C256   1.279       .  A
O255       Zr290   2.529       .  S
O255        C256   1.309       .  A
C256        C531   1.508       .  S
O257       Zr266   2.404       .  S
O257        C259   1.280       .  A
O258       Zr289   2.494       .  S
O258        C259   1.301       .  A
C259        C660   1.492       .  S
O260       Zr263   2.415       .  S
O260        C262   1.282       .  A
O261       Zr290   2.513   1_455  S
O261        C262   1.306       .  A
C262        C377   1.508   1_554  S
Zr263       O269   2.361       .  S
Zr263       O270   2.372       .  S
Zr263       O293   2.367   1_554  S
Zr263       O295   2.370   1_554  S
Zr263       O264   2.433       .  S
Zr263       O265   2.434   1_554  S
O264        H307   0.990       .  S
O265        H306   0.990       .  S
O265        H310   0.990       .  S
Zr266       O270   2.367       .  S
Zr266       O269   2.358       .  S
Zr266       O294   2.364   1_455  S
Zr266       O296   2.367   1_455  S
Zr266       O267   2.437       .  S
Zr266       O268   2.435   1_455  S
O267        H308   0.990       .  S
O267        H311   0.990       .  S
O268        H301   0.990       .  S
O269       Zr289   2.395       .  S
O270       Zr290   2.403   1_455  S
O270        H297   0.969       .  S
O271       Zr283   2.416   1_455  S
O271        C273   1.282   1_455  A
O272       Zr290   2.528   1_556  S
O272        C273   1.309       .  A
C273        C506   1.519       .  S
O274       Zr286   2.425       .  S
O274        C276   1.285       .  A
O275       Zr289   2.521   1_655  S
O275        C276   1.308       .  A
C276        C366   1.527       .  S
O277       Zr286   2.413       .  S
O277        C279   1.282       .  A
O278       Zr290   2.511       .  S
O278        C279   1.305       .  A
C279        C352   1.504       .  S
O280       Zr283   2.403       .  S
O280        C282   1.280       .  A
O281       Zr289   2.512   1_556  S
O281        C282   1.305   1_455  A
C282        C478   1.500   1_655  S
Zr283       O291   2.365       .  S
Zr283       O292   2.370       .  S
Zr283       O295   2.376   1_655  S
Zr283       O293   2.371   1_655  S
Zr283       O284   2.437       .  S
Zr283       O285   2.432   1_655  S
O284        H304   0.990       .  S
O284        H309   0.990       .  S
O285        H305   0.988       .  S
Zr286       O292   2.366   1_554  S
Zr286       O291   2.369   1_554  S
Zr286       O296   2.370       .  S
Zr286       O294   2.367       .  S
Zr286       O287   2.430   1_554  S
Zr286       O288   2.436       .  S
O287        H303   0.990       .  S
O288        H302   0.990       .  S
O288        H312   0.990       .  S
Zr289       O292   2.398   1_454  S
Zr289       O294   2.401   1_455  S
Zr289       O295   2.405   1_554  S
Zr290       O291   2.403   1_554  S
Zr290       O293   2.400   1_654  S
Zr290       O296   2.403       .  S
O291        H299   0.966       .  S
O294        H298   0.968       .  S
O295        H300   0.964       .  S
C313        C447   1.541       .  S
C313        C314   1.454   1_556  A
C313        C318   1.404       .  A
C314        C315   1.443   1_554  A
C314        H319   1.081       .  S
C315        C394   1.507   1_556  S
C315        C316   1.390       .  A
C316        C317   1.371       .  A
C316        H320   1.087       .  S
C317        C730   1.477       .  S
C317        C318   1.388       .  A
C318        H321   1.080       .  S
C322        C422   1.501   1_556  S
C322        C323   1.386       .  A
C322        C327   1.437       .  A
C323        C324   1.371       .  A
C323        H328   1.088       .  S
C324        C713   1.440       .  S
C324        C325   1.376       .  A
C325        C326   1.395       .  A
C325        H329   1.086       .  S
C326        C380   1.508       .  S
C326        C327   1.439       .  A
C327        H330   1.082       .  S
C331        C363   1.514       .  S
C331        C332   1.393   1_554  A
C331        C336   1.435       .  A
C332        C333   1.392       .  A
C332        H337   1.084       .  S
C333        C702   1.476       .  S
C333        C334   1.380       .  A
C334        C335   1.398       .  A
C334        H338   1.085       .  S
C335        C408   1.512   1_556  S
C335        C336   1.437   1_556  A
C336        H339   1.082       .  S
C340        C349   1.500   1_556  S
C340        C341   1.394       .  A
C340        C345   1.433   1_556  A
C341        C342   1.377       .  A
C341        H346   1.087       .  S
C342        C685   1.461       .  S
C342        C343   1.386       .  A
C343        C344   1.392       .  A
C343        H347   1.086       .  S
C344        C436   1.507   1_556  S
C344        C345   1.432   1_556  A
C345        H348   1.082       .  S
C349        C350   1.415   1_554  A
C349        C354   1.413       .  A
C350        C351   1.418       .  A
C350        C355   1.450       .  S
C351        C352   1.419   1_556  A
C351        C358   1.451       .  S
C352        C353   1.413       .  A
C353        C354   1.422       .  A
C353        C356   1.445       .  S
C354        C357   1.449       .  S
C355        N362   1.157       .  T
C356        N361   1.156       .  T
C357        N359   1.157       .  T
C358        N360   1.157       .  T
C363        C364   1.408   1_554  A
C363        C368   1.422       .  A
C364        C365   1.423       .  A
C364        C369   1.452       .  S
C365        C366   1.431   1_556  A
C365        C372   1.449       .  S
C366        C367   1.418       .  A
C367        C368   1.425       .  A
C367        C370   1.449       .  S
C368        C371   1.450       .  S
C369        N376   1.157       .  T
C370        N375   1.157       .  T
C371        N373   1.157       .  T
C372        N374   1.157       .  T
C377        C378   1.411       .  A
C377        C382   1.423   1_556  A
C378        C379   1.418       .  A
C378        C383   1.448       .  S
C379        C380   1.421       .  A
C379        C386   1.451       .  S
C380        C381   1.411   1_556  A
C381        C382   1.424       .  A
C381        C384   1.449       .  S
C382        C385   1.449       .  S
C383        N390   1.156       .  T
C384        N389   1.157       .  T
C385        N387   1.157       .  T
C386        N388   1.157       .  T
C391        C392   1.418       .  A
C391        C396   1.436       .  A
C392        C393   1.423       .  A
C392        C397   1.451       .  S
C393        C394   1.422       .  A
C393        C400   1.447       .  S
C394        C395   1.405       .  A
C395        C396   1.423       .  A
C395        C398   1.451   1_554  S
C396        C399   1.449   1_554  S
C397        N404   1.158       .  T
C398        N403   1.157       .  T
C399        N401   1.157       .  T
C400        N402   1.157       .  T
C405        C406   1.415       .  A
C405        C410   1.418   1_554  A
C406        C407   1.427       .  A
C406        C411   1.445       .  S
C407        C408   1.416       .  A
C407        C414   1.449       .  S
C408        C409   1.418   1_554  A
C409        C410   1.419       .  A
C409        C412   1.451       .  S
C410        C413   1.451       .  S
C411        N418   1.156       .  T
C412        N417   1.157       .  T
C413        N415   1.157       .  T
C414        N416   1.157       .  T
C419        C420   1.418   1_554  A
C419        C424   1.413       .  A
C420        C421   1.422       .  A
C420        C425   1.449       .  S
C421        C422   1.413   1_556  A
C421        C428   1.449       .  S
C422        C423   1.420       .  A
C423        C424   1.421       .  A
C423        C426   1.449       .  S
C424        C427   1.450       .  S
C425        N432   1.157       .  T
C426        N431   1.157       .  T
C427        N429   1.157       .  T
C428        N430   1.157       .  T
C433        C434   1.426   1_554  A
C433        C438   1.416       .  A
C434        C435   1.421       .  A
C434        C439   1.450       .  S
C435        C436   1.409   1_556  A
C435        C442   1.452       .  S
C436        C437   1.420       .  A
C437        C438   1.423       .  A
C437        C440   1.451       .  S
C438        C441   1.448       .  S
C439        N446   1.157       .  T
C440        N445   1.157       .  T
C441        N443   1.157       .  T
C442        N444   1.157       .  T
C447        C448   1.414   1_556  A
C447        C452   1.443       .  A
C448        C449   1.428       .  A
C448        C453   1.451       .  S
C449        C450   1.435       .  A
C449        C456   1.452       .  S
C450        C451   1.415   1_554  A
C451        C452   1.417       .  A
C451        C454   1.459       .  S
C452        C455   1.453       .  S
C453        N460   1.158       .  T
C454        N459   1.158       .  T
C455        N457   1.158       .  T
C456        N458   1.158       .  T
C461        C462   1.431   1_565  A
C461        C466   1.410       .  A
C462        C463   1.421       .  A
C462        C467   1.449       .  S
C463        C464   1.416       .  A
C463        C470   1.454       .  S
C464        C465   1.438   1_545  A
C465        C466   1.426       .  A
C465        C468   1.450       .  S
C466        C469   1.452       .  S
C467        N474   1.156       .  T
C468        N473   1.157       .  T
C469        N471   1.157       .  T
C470        N472   1.158       .  T
C475        C476   1.416   1_455  A
C475        C480   1.425       .  A
C476        C477   1.428       .  A
C476        C481   1.447       .  S
C477        C478   1.420   1_655  A
C477        C484   1.449       .  S
C478        C479   1.410       .  A
C479        C480   1.414       .  A
C479        C482   1.452       .  S
C480        C483   1.453       .  S
C481        N488   1.157       .  T
C482        N487   1.157       .  T
C483        N485   1.157       .  T
C484        N486   1.157       .  T
C489        C490   1.411   1_545  A
C489        C494   1.416       .  A
C490        C491   1.417       .  A
C490        C495   1.452       .  S
C491        C492   1.419   1_565  A
C491        C498   1.448       .  S
C492        C493   1.416       .  A
C493        C494   1.422       .  A
C493        C496   1.446       .  S
C494        C497   1.449       .  S
C495        N502   1.157       .  T
C496        N501   1.156       .  T
C497        N499   1.157       .  T
C498        N500   1.156       .  T
C503        C504   1.409   1_655  A
C503        C508   1.423       .  A
C504        C505   1.425       .  A
C504        C509   1.449       .  S
C505        C506   1.428   1_455  A
C505        C512   1.449       .  S
C506        C507   1.413       .  A
C507        C508   1.424       .  A
C507        C510   1.450       .  S
C508        C511   1.452       .  S
C509        N516   1.157       .  T
C510        N515   1.157       .  T
C511        N513   1.157       .  T
C512        N514   1.157       .  T
C517        C518   1.409   1_565  A
C517        C522   1.431       .  A
C518        C519   1.409       .  A
C518        C523   1.445       .  S
C519        C520   1.424       .  A
C519        C526   1.454       .  S
C520        C521   1.412   1_545  A
C521        C522   1.429       .  A
C521        C524   1.448       .  S
C522        C525   1.449       .  S
C523        N530   1.155       .  T
C524        N529   1.157       .  T
C525        N527   1.157       .  T
C526        N528   1.157       .  T
C531        C532   1.422       .  A
C531        C536   1.414   1_655  A
C532        C533   1.422       .  A
C532        C537   1.450       .  S
C533        C534   1.413       .  A
C533        C540   1.449       .  S
C534        C535   1.417   1_655  A
C535        C536   1.421       .  A
C535        C538   1.449       .  S
C536        C539   1.446       .  S
C537        N544   1.158       .  T
C538        N543   1.157       .  T
C539        N541   1.156       .  T
C540        N542   1.157       .  T
C545        C546   1.413   1_565  A
C545        C550   1.416       .  A
C546        C547   1.417       .  A
C546        C551   1.449       .  S
C547        C548   1.416   1_545  A
C547        C554   1.449       .  S
C548        C549   1.414       .  A
C549        C550   1.417       .  A
C549        C552   1.450       .  S
C550        C553   1.450       .  S
C551        N558   1.157       .  T
C552        N557   1.157       .  T
C553        N555   1.157       .  T
C554        N556   1.158       .  T
C559        C560   1.416       .  A
C559        C564   1.413   1_545  A
C560        C561   1.427       .  A
C560        C565   1.445       .  S
C561        C562   1.417       .  A
C561        C568   1.447       .  S
C562        C563   1.419   1_545  A
C563        C564   1.417       .  A
C563        C566   1.446       .  S
C564        C567   1.451       .  S
C565        N572   1.157       .  T
C566        N571   1.155       .  T
C567        N569   1.157       .  T
C568        N570   1.157       .  T
C573        C574   1.406   1_655  A
C573        C578   1.423       .  A
C574        C575   1.422       .  A
C574        C579   1.452       .  S
C575        C576   1.433   1_455  A
C575        C582   1.449       .  S
C576        C577   1.413       .  A
C577        C578   1.424       .  A
C577        C580   1.449       .  S
C578        C581   1.446       .  S
C579        N586   1.157       .  T
C580        N585   1.158       .  T
C581        N583   1.157       .  T
C582        N584   1.157       .  T
C587        C588   1.425       .  A
C587        C592   1.417   1_565  A
C588        C589   1.418       .  A
C588        C593   1.450       .  S
C589        C590   1.409       .  A
C589        C596   1.451       .  S
C590        C591   1.421   1_565  A
C591        C592   1.427       .  A
C591        C594   1.450       .  S
C592        C595   1.450       .  S
C593        N600   1.157       .  T
C594        N599   1.157       .  T
C595        N597   1.158       .  T
C596        N598   1.157       .  T
C601        C602   1.409       .  A
C601        C606   1.425   1_655  A
C602        C603   1.424       .  A
C602        C607   1.448       .  S
C603        C604   1.422       .  A
C603        C610   1.446       .  S
C604        C605   1.412   1_655  A
C605        C606   1.424       .  A
C605        C608   1.451       .  S
C606        C609   1.451       .  S
C607        N614   1.157       .  T
C608        N613   1.157       .  T
C609        N611   1.157       .  T
C610        N612   1.156       .  T
C615        C616   1.421       .  A
C615        C620   1.412   1_545  A
C616        C617   1.420       .  A
C616        C621   1.450       .  S
C617        C618   1.411       .  A
C617        C624   1.448       .  S
C618        C619   1.418   1_545  A
C619        C620   1.418       .  A
C619        C622   1.450       .  S
C620        C623   1.448       .  S
C621        N628   1.157       .  T
C622        N627   1.157       .  T
C623        N625   1.157       .  T
C624        N626   1.157       .  T
C629        C630   1.419       .  A
C629        C634   1.412   1_655  A
C630        C631   1.413       .  A
C630        C635   1.448       .  S
C631        C632   1.408   1_655  A
C631        C638   1.446       .  S
C632        C633   1.426       .  A
C633        C634   1.429       .  A
C633        C636   1.448       .  S
C634        C637   1.447       .  S
C635        N642   1.157       .  T
C636        N641   1.157       .  T
C637        N639   1.157       .  T
C638        N640   1.156       .  T
C643        C644   1.413       .  A
C643        C648   1.414   1_565  A
C644        C645   1.419       .  A
C644        C649   1.450       .  S
C645        C646   1.419       .  A
C645        C652   1.450       .  S
C646        C647   1.413   1_565  A
C647        C648   1.417       .  A
C647        C650   1.447       .  S
C648        C651   1.450       .  S
C649        N656   1.157       .  T
C650        N655   1.156       .  T
C651        N653   1.157       .  T
C652        N654   1.158       .  T
C657        C658   1.414       .  A
C657        C662   1.416   1_455  A
C658        C659   1.419       .  A
C658        C663   1.449       .  S
C659        C660   1.415       .  A
C659        C666   1.449       .  S
C660        C661   1.413   1_455  A
C661        C662   1.414       .  A
C661        C664   1.451       .  S
C662        C665   1.451       .  S
C663        N670   1.157       .  T
C664        N669   1.157       .  T
C665        N667   1.157       .  T
C666        N668   1.157       .  T
C671        C672   1.415       .  A
C671        C676   1.408   1_455  A
C672        C673   1.422       .  A
C672        C677   1.450       .  S
C673        C674   1.415       .  A
C673        C680   1.448       .  S
C674        C675   1.424   1_455  A
C675        C676   1.419       .  A
C675        C678   1.448       .  S
C676        C679   1.451       .  S
C677        N684   1.157       .  T
C678        N683   1.157       .  T
C679        N681   1.157       .  T
C680        N682   1.157       .  T
C685        C686   1.415       .  A
C685        C690   1.404       .  A
C686        C687   1.394       .  A
C686        C691   1.451   1_556  S
C687        C688   1.408       .  A
C687        C694   1.456   1_556  S
C688        C689   1.417       .  A
C689        C690   1.397       .  A
C689        C692   1.450       .  S
C690        C693   1.454       .  S
C691        N698   1.156       .  T
C692        N697   1.157       .  T
C693        N695   1.157       .  T
C694        N696   1.157       .  T
C699        C700   1.418       .  A
C699        C704   1.410       .  A
C700        C701   1.396       .  A
C700        C705   1.449       .  S
C701        C702   1.406       .  A
C701        C708   1.458       .  S
C702        C703   1.425       .  A
C703        C704   1.395       .  A
C703        C706   1.447   1_556  S
C704        C707   1.466   1_556  S
C705        N712   1.157       .  T
C706        N711   1.154       .  T
C707        N709   1.159       .  T
C708        N710   1.158       .  T
C713        C714   1.401       .  A
C713        C718   1.407   1_556  A
C714        C715   1.392       .  A
C714        C719   1.453       .  S
C715        C716   1.410   1_556  A
C715        C722   1.449       .  S
C716        C717   1.401       .  A
C717        C718   1.393       .  A
C717        C720   1.447       .  S
C718        C721   1.451       .  S
C719        N726   1.157       .  T
C720        N725   1.156       .  T
C721        N723   1.157       .  T
C722        N724   1.156       .  T
C727        C728   1.398   1_556  A
C727        C732   1.414       .  A
C728        C729   1.390       .  A
C728        C733   1.457       .  S
C729        C730   1.430   1_554  A
C729        C736   1.451       .  S
C730        C731   1.407       .  A
C731        C732   1.403       .  A
C731        C734   1.452       .  S
C732        C735   1.448       .  S
C733        N740   1.157       .  T
C734        N739   1.157       .  T
C735        N737   1.157       .  T
C736        N738   1.159       .  T
C741        C742   1.411       .  A
C741        C746   1.399   1_565  A
C742        C743   1.406       .  A
C742        C747   1.450       .  S
C743        C744   1.406       .  A
C743        C750   1.449       .  S
C744        C745   1.416       .  A
C745        C746   1.383   1_565  A
C745        C748   1.452   1_565  S
C746        C749   1.455       .  S
C747        N754   1.157       .  T
C748        N753   1.156       .  T
C749        N751   1.156       .  T
C750        N752   1.157       .  T
C755        C756   1.414       .  A
C755        C760   1.400       .  A
C756        C757   1.380   1_455  A
C756        C761   1.453   1_455  S
C757        C758   1.394   1_655  A
C757        C764   1.447       .  S
C758        C759   1.412       .  A
C759        C760   1.397       .  A
C759        C762   1.450       .  S
C760        C763   1.449       .  S
C761        N768   1.157       .  T
C762        N767   1.157       .  T
C763        N765   1.157       .  T
C764        N766   1.155       .  T
C769        C770   1.412       .  A
C769        C774   1.415       .  A
C770        C771   1.392       .  A
C770        C775   1.452       .  S
C771        C772   1.420       .  A
C771        C778   1.457   1_565  S
C772        C773   1.417       .  A
C773        C774   1.411       .  A
C773        C776   1.450       .  S
C774        C777   1.451       .  S
C775        N782   1.158       .  T
C776        N781   1.157       .  T
C777        N779   1.157       .  T
C778        N780   1.157       .  T
C783        C784   1.407       .  A
C783        C788   1.413       .  A
C784        C785   1.388       .  A
C784        C789   1.456       .  S
C785        C786   1.418       .  A
C785        C792   1.453       .  S
C786        C787   1.425       .  A
C787        C788   1.397       .  A
C787        C790   1.448       .  S
C788        C791   1.459       .  S
C789        N796   1.158       .  T
C790        N795   1.155       .  T
C791        N793   1.158       .  T
C792        N794   1.157   1_455  T
C797        C798   1.408       .  A
C797        C802   1.404   1_545  A
C798        C799   1.397       .  A
C798        C803   1.451       .  S
C799        C800   1.404       .  A
C799        C806   1.450       .  S
C800        C801   1.405   1_545  A
C801        C802   1.391       .  A
C801        C804   1.447       .  S
C802        C805   1.453       .  S
C803        N810   1.157       .  T
C804        N809   1.155       .  T
C805        N807   1.157       .  T
C806        N808   1.157       .  T
C811        C812   1.409       .  A
C811        C816   1.414   1_655  A
C812        C813   1.390       .  A
C812        C817   1.450       .  S
C813        C814   1.403       .  A
C813        C820   1.450       .  S
C814        C815   1.408   1_655  A
C815        C816   1.394       .  A
C815        C818   1.453       .  S
C816        C819   1.454       .  S
C817        N824   1.156       .  T
C818        N823   1.157       .  T
C819        N821   1.157       .  T
C820        N822   1.156       .  T
C825        C826   1.409       .  A
C825        C830   1.405   1_565  A
C826        C827   1.397       .  A
C826        C831   1.452       .  S
C827        C828   1.404       .  A
C827        C834   1.452       .  S
C828        C829   1.407   1_565  A
C829        C830   1.394       .  A
C829        C832   1.451       .  S
C830        C833   1.453       .  S
C831        N838   1.157       .  T
C832        N837   1.156       .  T
C833        N835   1.157       .  T
C834        N836   1.157       .  T
C839        C840   1.419       .  A
C839        C844   1.410       .  A
C840        C841   1.388       .  A
C840        C845   1.455   1_655  S
C841        C842   1.408       .  A
C841        C848   1.456   1_655  S
C842        C843   1.414       .  A
C843        C844   1.403       .  A
C843        C846   1.452       .  S
C844        C847   1.452       .  S
C845        N852   1.157       .  T
C846        N851   1.157       .  T
C847        N849   1.158       .  T
C848        N850   1.157       .  T
