geometry optimzed in LAMMPS
_audit_creation_date              2020-12-01 
_audit_creation_method            'lammps2cif' 
_symmetry_space_group_name_H-M    'P1' 
_symmetry_Int_Tables_number       1 
_symmetry_cell_setting            triclinic 
loop_ 
_symmetry_equiv_pos_as_xyz 
  x,y,z 
_cell_length_a                    24.07107364 
_cell_length_b                    24.470580577389182 
_cell_length_c                    24.039320146330024 
_cell_angle_alpha                 92.7268471237642 
_cell_angle_beta                  91.65691405768348 
_cell_angle_gamma                 80.52507508796053 
loop_ 
_atom_site_label 
_atom_site_type_symbol 
_atom_site_fract_x 
_atom_site_fract_y 
_atom_site_fract_z 
_atom_site_charge 
C1          C  0.86843558  0.89505962  0.59779419    -0.02600
C2          C  0.49485314  0.51370994  0.62286860    -0.02600
C3          C  0.83345836  0.55613224  0.96935823    -0.02600
C4          C  0.50070877  0.86941013  0.97557288    -0.02600
C5          C  0.99156411  0.02351351  0.44099378    -0.02600
C6          C  0.00689196  0.39105869  0.09339735    -0.02600
C7          C  0.33444472  0.04347482  0.10570602    -0.02600
C8          C  0.37643885  0.37415515  0.45012415    -0.02600
Zr9        Zr  0.86194427  0.91953108  0.94997386     2.17500
O10         O  0.80158877  0.93848614  0.86756384    -0.51400
O11         O  0.86295174  0.82140674  0.95837943    -0.74600
O12         O  0.90952763  0.88448603  0.86533553    -0.81400
O13         O  0.74582970  0.94746720  0.05293755    -0.83200
O14         O  0.97608481  0.93829882  0.85293181    -0.78800
O15         O  0.76776726  0.90646419  0.96772303    -0.90400
O16         O  0.92191961  0.79405174  0.03077799    -0.76400
O17         O  0.95899369  0.88953209  0.96986065    -0.85900
O18         O  0.86548041  0.90327018  0.04694784    -0.85600
O19         O  0.90615900  0.99559043  0.92604736    -0.72300
O20         O  0.81980798  0.00513660  0.99551704    -0.84500
Zr21       Zr  0.97052894  0.03554352  0.08785419     2.26400
Zr22       Zr  0.00433014  0.96558000  0.94699326     2.06300
Zr23       Zr  0.82693295  0.98910983  0.09300376     2.10000
Zr24       Zr  0.96245868  0.87396594  0.06689659     1.78800
O25         O  0.75700725  0.07271782  0.10391486    -0.93300
O26         O  0.04461574  0.80899034  0.03561590    -0.41100
O27         O  0.92550093  0.96022697  0.11395316    -0.77700
O28         O  0.01065960  0.94818108  0.04457869    -0.96400
O29         O  0.96481946  0.05226862  0.99174200    -0.89700
O30         O  0.87263619  0.06555066  0.07060927    -0.92500
C31         C  0.88694925  0.78475667  0.99140370     1.01200
C32         C  0.73355136  0.92087314  0.00748706     1.14100
C33         C  0.94052456  0.90765864  0.83458150     1.04900
O34         O  0.07482614  0.88493731  0.92365970    -0.94700
O35         O  0.09211519  0.99322088  0.98366735    -0.90400
O36         O  0.06789953  0.03499055  0.06758920    -0.83600
C37         C  0.10396173  0.01766626  0.02993783     1.11600
O38         O  0.79506197  0.08891591  0.89913974    -0.96700
Zr39       Zr  0.86678632  0.08019879  0.97330089     1.88900
O40         O  0.96201624  0.13528477  0.08044217    -0.73300
O41         O  0.04066426  0.02457134  0.88273736    -0.52600
O42         O  0.88771871  0.12228188  0.88823134    -0.97300
O43         O  0.78542845  0.14534171  0.00632719    -0.54500
O44         O  0.91272944  0.15841924  0.00151267    -0.73800
C45         C  0.94390286  0.16991995  0.04300710     0.98500
O46         O  0.04138868  0.05137263  0.15916972    -0.62700
O47         O  0.77870542  0.95031226  0.16570074    -0.57500
O48         O  0.93838078  0.04256193  0.18171504    -0.94100
O49         O  0.85632761  0.01053588  0.18970101    -0.92600
O50         O  0.92926573  0.83642967  0.14953100    -0.92900
O51         O  0.03501175  0.85372499  0.13925584    -0.91700
C52         C  0.89898517  0.03040779  0.21089851     1.17300
H53         H  0.84353115  0.87539351  0.05609027     0.33300
H54         H  0.04938322  0.93730106  0.05641955     0.44100
H55         H  0.85917780  0.09874052  0.09284464     0.37700
H56         H  0.89940474  0.00283766  0.88716271     0.34100
H57         H  0.03493977  0.79738097  0.99701311     0.25900
H58         H  0.00980931  0.03428486  0.85503251     0.31900
H59         H  0.92937460  0.11639327  0.88729092     0.37800
H60         H  0.92730195  0.86684892  0.17845481     0.32200
H61         H  0.73950700  0.97044682  0.16445418     0.31100
H62         H  0.72032894  0.05978507  0.09805619     0.32800
H63         H  0.77859813  0.17386677  0.97795891     0.31800
H64         H  0.04872585  0.88929347  0.14749814     0.35800
H65         H  0.02619977  0.08626716  0.18000854     0.28500
H66         H  0.80846287  0.90494149  0.84242046     0.32700
H67         H  0.76091212  0.07996517  0.91625969     0.35600
H68         H  0.77599128  0.91195431  0.15223738     0.28200
H69         H  0.04314491  0.02164880  0.18604917     0.41100
H70         H  0.10569513  0.88633240  0.95155180     0.31100
H71         H  0.07424186  0.83207421  0.03137961     0.38700
H72         H  0.79905166  0.16482965  0.03970595     0.30600
H73         H  0.04195479  0.05975915  0.90445626     0.30600
H74         H  0.81686648  0.96729283  0.84806219     0.30900
Zr75       Zr  0.86748304  0.53274438  0.59671263     2.17500
O76         O  0.80338571  0.61586073  0.62754502    -0.51400
O77         O  0.86757311  0.52288766  0.69746780    -0.74600
O78         O  0.76893823  0.51652964  0.59492923    -0.81400
O79         O  0.97623887  0.62592645  0.55787333    -0.83200
O80         O  0.76782462  0.42592405  0.56925694    -0.78800
O81         O  0.88838087  0.62691756  0.58993241    -0.90400
O82         O  0.93331860  0.45169356  0.72377840    -0.76400
O83         O  0.88750092  0.43806827  0.61972171    -0.85900
O84         O  0.96616892  0.51452510  0.61918599    -0.85600
O85         O  0.84101402  0.48266136  0.51405519    -0.72300
O86         O  0.91602522  0.55059596  0.51519960    -0.84500
Zr87       Zr  0.00789953  0.38285605  0.47720483     2.26400
Zr88       Zr  0.86243894  0.38711846  0.53772608     2.06300
Zr89       Zr  0.01487770  0.52940263  0.53662425     2.10000
Zr90       Zr  0.98597762  0.41936000  0.64073974     1.78800
O91         O  0.04422163  0.59134075  0.47086195    -0.93300
O92         O  0.97089437  0.33379215  0.68139709    -0.41100
O93         O  0.03585256  0.43375796  0.55886841    -0.77700
O94         O  0.96139668  0.36641360  0.56068754    -0.96400
O95         O  0.90978488  0.40291498  0.45487384    -0.89700
O96         O  0.98966928  0.47799317  0.45514080    -0.92500
C97         C  0.89207291  0.49050490  0.73458358     1.01200
C98         C  0.92882910  0.65156493  0.57552409     1.14100
C99         C  0.74340851  0.47446857  0.58583844     1.04900
O100        O  0.83359740  0.32829951  0.60672406    -0.94700
O101        O  0.89851814  0.29059458  0.51200253    -0.90400
O102        O  0.98469995  0.28896612  0.47513567    -0.83600
C103        C  0.94426067  0.26486770  0.49052133     1.11600
O104        O  0.81615956  0.57593264  0.41851001    -0.96700
Zr105      Zr  0.89161607  0.49855476  0.43434052     1.88900
O106        O  0.00155851  0.38277565  0.37510708    -0.73300
O107        O  0.79847807  0.35949066  0.46531471    -0.52600
O108        O  0.81148035  0.46994979  0.38353025    -0.97300
O109        O  0.91852085  0.57290622  0.38228721    -0.54500
O110        O  0.93239105  0.45286182  0.35102625    -0.73800
C111        C  0.97179982  0.41264904  0.33896951     0.98500
O112        O  0.07988656  0.30040083  0.46651050    -0.62700
O113        O  0.07710181  0.55606572  0.61110614    -0.57500
O114        O  0.10256872  0.40496576  0.46706861    -0.94100
O115        O  0.10812784  0.49192496  0.50010783    -0.92600
O116        O  0.05403740  0.45679936  0.70241969    -0.92900
O117        O  0.07330782  0.35538459  0.65606818    -0.91700
C118        C  0.13012617  0.44545591  0.47655411     1.17300
H119        H  0.97529537  0.53838032  0.65016512     0.33300
H120        H  0.97211909  0.32847883  0.57106918     0.44100
H121        H  0.01163742  0.48451356  0.42384756     0.37700
H122        H  0.80197209  0.49306541  0.50293961     0.34100
H123        H  0.98143947  0.33802913  0.72127073     0.25900
H124        H  0.77350921  0.39430859  0.45598948     0.31900
H125        H  0.82534913  0.43176014  0.36898379     0.37800
H126        H  0.03149418  0.48426242  0.72785088     0.32200
H127        H  0.10860693  0.52456520  0.61279768     0.31100
H128        H  0.04255288  0.57217559  0.43380511     0.32800
H129        H  0.95092285  0.55534071  0.35970604     0.31800
H130        H  0.08831569  0.34551235  0.61833987     0.35800
H131        H  0.09667225  0.30289718  0.42976920     0.28500
H132        H  0.78326838  0.60476351  0.65943860     0.32700
H133        H  0.81809263  0.60146873  0.45147378     0.35600
H134        H  0.09378172  0.58649816  0.59598211     0.28200
H135        H  0.11012314  0.30526380  0.49422520     0.41100
H136        H  0.80751387  0.30680104  0.58621264     0.31100
H137        H  0.92947062  0.33578830  0.68085747     0.38700
H138        H  0.93498985  0.59651733  0.41071029     0.30600
H139        H  0.82203423  0.34965150  0.43210400     0.30600
H140        H  0.77437081  0.62268422  0.59751021     0.30900
Zr141      Zr  0.48917702  0.49954291  0.96862956     2.17500
O142        O  0.55993709  0.48903764  0.89627180    -0.51400
O143        O  0.48499701  0.60065144  0.97766758    -0.74600
O144        O  0.45038677  0.51018340  0.87500148    -0.81400
O145        O  0.60552055  0.47427541  0.08007398    -0.83200
O146        O  0.37166826  0.46996709  0.86385110    -0.78800
O147        O  0.58505928  0.50642268  0.99320701    -0.90400
O148        O  0.42679758  0.63108007  0.04820330    -0.76400
O149        O  0.39137747  0.52990712  0.98235735    -0.85900
O150        O  0.48330712  0.52450577  0.06526241    -0.85600
O151        O  0.44553662  0.41998273  0.94305742    -0.72300
O152        O  0.52930617  0.41764070  0.01647774    -0.84500
Zr153      Zr  0.37670066  0.39476084  0.10046427     2.26400
Zr154      Zr  0.34644635  0.45076272  0.95790123     2.06300
Zr155      Zr  0.52037486  0.44290286  0.11361059     2.10000
Zr156      Zr  0.38581456  0.55418650  0.07939286     1.78800
O157        O  0.59328420  0.36411341  0.13237335    -0.93300
O158        O  0.30603567  0.61860065  0.04375526    -0.41100
O159        O  0.42146290  0.47271189  0.12904079    -0.77700
O160        O  0.33831075  0.47806671  0.05459572    -0.96400
O161        O  0.38474842  0.36780494  0.00473685    -0.89700
O162        O  0.47490469  0.36427796  0.08910721    -0.92500
C163        C  0.46152259  0.63947497  0.01156192     1.01200
C164        C  0.61835701  0.49560688  0.03504763     1.14100
C165        C  0.41127701  0.49295110  0.84514914     1.04900
O166        O  0.27561268  0.52806754  0.92978406    -0.94700
O167        O  0.25653926  0.43238457  0.99455475    -0.90400
O168        O  0.27743772  0.39716611  0.07972716    -0.83600
C169        C  0.24232240  0.41415154  0.04075944     1.11600
O170        O  0.55428283  0.31984174  0.92059312    -0.96700
Zr171      Zr  0.48369386  0.33923719  0.99266003     1.88900
O172        O  0.38645519  0.29473444  0.09182338    -0.73300
O173        O  0.31110406  0.38531204  0.89189805    -0.52600
O174        O  0.45649298  0.28686194  0.91045265    -0.97300
O175        O  0.57003618  0.28443989  0.02864378    -0.54500
O176        O  0.45131415  0.25860664  0.02797797    -0.73800
C177        C  0.41409425  0.25401294  0.06372293     0.98500
O178        O  0.30951502  0.37747529  0.16931323    -0.62700
O179        O  0.55642001  0.50182159  0.18597915    -0.57500
O180        O  0.40974258  0.39418255  0.19545198    -0.94100
O181        O  0.49375853  0.42433278  0.20763525    -0.92600
O182        O  0.41394368  0.59792199  0.16638887    -0.92900
O183        O  0.31007114  0.57949751  0.14537257    -0.91700
C184        C  0.45055972  0.40652691  0.22574094     1.17300
H185        H  0.50516803  0.55324314  0.07582737     0.33300
H186        H  0.29972324  0.49157037  0.06405846     0.44100
H187        H  0.48840361  0.33355932  0.11238585     0.37700
H188        H  0.45238529  0.40899385  0.90448707     0.34100
H189        H  0.31890053  0.63086042  0.00835363     0.25900
H190        H  0.29823287  0.35763253  0.91508476     0.31900
H191        H  0.42284012  0.27183418  0.92139135     0.37800
H192        H  0.44806430  0.57299950  0.17918276     0.32200
H193        H  0.59675937  0.48598052  0.19079020     0.31100
H194        H  0.61290260  0.37570728  0.16659699     0.32800
H195        H  0.57636243  0.25061266  0.00385540     0.31800
H196        H  0.30781089  0.54467646  0.16384883     0.35800
H197        H  0.32656974  0.34307286  0.18760308     0.28500
H198        H  0.55228250  0.52320851  0.87491562     0.32700
H199        H  0.54860570  0.35331548  0.89820665     0.35600
H200        H  0.55644281  0.53771573  0.16863951     0.28200
H201        H  0.30788719  0.40743103  0.19871230     0.41100
H202        H  0.29719655  0.55708610  0.91951817     0.31100
H203        H  0.27756023  0.59512901  0.03220914     0.38700
H204        H  0.55992956  0.27106363  0.06461442     0.30600
H205        H  0.27603090  0.40638993  0.87604741     0.30600
H206        H  0.55114876  0.45895560  0.87012883     0.30900
Zr207      Zr  0.49781870  0.87458688  0.59821476     2.17500
O208        O  0.56346535  0.79282550  0.62514996    -0.51400
O209        O  0.48843079  0.88145874  0.70016022    -0.74600
O210        O  0.59479711  0.89529099  0.60597252    -0.81400
O211        O  0.39429197  0.77371687  0.54561106    -0.83200
O212        O  0.59161822  0.98574601  0.58664387    -0.78800
O213        O  0.47949710  0.78001091  0.58559989    -0.90400
O214        O  0.41749080  0.95115179  0.72339586    -0.76400
O215        O  0.47110044  0.96916613  0.62767211    -0.85900
O216        O  0.39825743  0.88747468  0.60905389    -0.85600
O217        O  0.52443947  0.92485500  0.52225634    -0.72300
O218        O  0.45704976  0.85165803  0.50910459    -0.84500
Zr219      Zr  0.35611156  0.01625683  0.47662606     2.26400
Zr220      Zr  0.49682694  0.01997434  0.55223779     2.06300
Zr221      Zr  0.35707952  0.86751484  0.51967664     2.10000
Zr222      Zr  0.37136146  0.98211847  0.63756653     1.78800
O223        O  0.34689456  0.81040073  0.43546515    -0.93300
O224        O  0.37297783  0.06960904  0.68977725    -0.41100
O225        O  0.32929778  0.96243832  0.54936657    -0.77700
O226        O  0.39687890  0.03717526  0.56605467    -0.96400
O227        O  0.45521110  0.00082995  0.46319809    -0.89700
O228        O  0.38130104  0.92115683  0.44626852    -0.92500
C229        C  0.45788943  0.91268110  0.73605162     1.01200
C230        C  0.44087983  0.75217975  0.56863922     1.14100
C231        C  0.61845961  0.93835339  0.60050085     1.04900
O232        O  0.51454333  0.08359743  0.62924105    -0.94700
O233        O  0.46121873  0.11356851  0.52589902    -0.90400
O234        O  0.37652771  0.11216481  0.48258529    -0.83600
C235        C  0.41645527  0.13773311  0.50163482     1.11600
O236        O  0.56484606  0.83672991  0.42020498    -0.96700
Zr237      Zr  0.48063094  0.90550607  0.43531719     1.88900
O238        O  0.36833313  0.01491091  0.37630799    -0.73300
O239        O  0.56289273  0.04955056  0.48971351    -0.52600
O240        O  0.55868451  0.94186463  0.39624424    -0.97300
O241        O  0.46714705  0.82417503  0.37723736    -0.54500
O242        O  0.44102676  0.94813123  0.35154115    -0.73800
C243        C  0.40063998  0.98690101  0.33975158     0.98500
O244        O  0.27227385  0.08585528  0.46344552    -0.62700
O245        O  0.28667889  0.82985940  0.57014876    -0.57500
O246        O  0.26163787  0.99224100  0.46182199    -0.94100
O247        O  0.26196869  0.90390901  0.48743752    -0.92600
O248        O  0.30691199  0.93476934  0.68618632    -0.92900
O249        O  0.27845395  0.03857970  0.64539451    -0.91700
C250        C  0.23700197  0.95028818  0.46913012     1.17300
H251        H  0.38870278  0.86322695  0.63658797     0.33300
H252        H  0.38426734  0.07527517  0.57807472     0.44100
H253        H  0.36147454  0.91306781  0.41220143     0.37700
H254        H  0.56389091  0.91624900  0.51384010     0.34100
H255        H  0.35547343  0.06522545  0.72571259     0.25900
H256        H  0.58629749  0.07094504  0.51396019     0.31900
H257        H  0.54112407  0.97519743  0.37654151     0.37800
H258        H  0.30689969  0.95021112  0.72501672     0.32200
H259        H  0.27988235  0.79664189  0.54748084     0.31100
H260        H  0.31551841  0.79046798  0.44307467     0.32800
H261        H  0.48512051  0.82854506  0.34155470     0.31800
H262        H  0.27277424  0.05844766  0.61021103     0.35800
H263        H  0.27034315  0.11093424  0.49715301     0.28500
H264        H  0.57722974  0.80224151  0.66301629     0.32700
H265        H  0.56752583  0.81334022  0.45299156     0.35600
H266        H  0.30604164  0.81503448  0.60445331     0.28200
H267        H  0.28081650  0.10846136  0.43267531     0.41100
H268        H  0.53350906  0.05966383  0.65854295     0.31100
H269        H  0.41327204  0.06981731  0.69909177     0.38700
H270        H  0.42634568  0.82944452  0.36818948     0.30600
H271        H  0.58868517  0.01523907  0.47850412     0.30600
H272        H  0.59633925  0.79036302  0.60081150     0.30900
C273        C  0.28834858  0.45388524  0.46052718    -0.05900
C274        C  0.31021484  0.39844429  0.44221711     0.00000
C275        C  0.26813047  0.36944852  0.41544521    -0.08500
C276        C  0.21102876  0.38638789  0.42915930    -0.05900
C277        C  0.19129209  0.43577994  0.45941804     0.00000
C278        C  0.23020004  0.47318643  0.46943124    -0.08400
C279        C  0.21133259  0.53331945  0.48827438     0.61900
H280        H  0.31719248  0.48262378  0.46940080     0.12600
H281        H  0.18095776  0.35986157  0.41567549     0.12600
C282        C  0.27810203  0.32225517  0.37127505     0.62200
F283        F  0.25501084  0.56377409  0.48875968    -0.23000
F284        F  0.19075924  0.53628681  0.54157918    -0.20300
F285        F  0.16994511  0.55775244  0.45200959    -0.20000
F286        F  0.29159312  0.27187235  0.39563472    -0.20100
F287        F  0.31829020  0.32996940  0.33448683    -0.20400
F288        F  0.22993245  0.31995653  0.33875771    -0.23100
C289        C  0.45286979  0.34620784  0.30376335    -0.05900
C290        C  0.44375495  0.40010264  0.28539716     0.00000
C291        C  0.41159989  0.44244200  0.31759034    -0.08500
C292        C  0.39189025  0.42969936  0.36890564    -0.05900
C293        C  0.39998390  0.37537277  0.38956539     0.00000
C294        C  0.42836015  0.33128810  0.35239180    -0.08400
C295        C  0.43382061  0.26847213  0.35623270     0.61900
H296        H  0.47576282  0.31424842  0.27638305     0.12600
H297        H  0.37158590  0.46388369  0.39469417     0.12600
C298        C  0.39958233  0.50158959  0.29840633     0.62200
F299        F  0.42744712  0.24375509  0.30379280    -0.23000
F300        F  0.39369799  0.25210385  0.38757862    -0.20300
F301        F  0.48686568  0.24735402  0.37657838    -0.20000
F302        F  0.37069979  0.50329958  0.24784390    -0.20100
F303        F  0.44990835  0.52078871  0.29249600    -0.20400
F304        F  0.36722915  0.53707748  0.33593425    -0.23100
C305        C  0.44065119  0.28753564  0.48453747    -0.05900
C306        C  0.38490858  0.31606785  0.47852844     0.00000
C307        C  0.34258905  0.28752279  0.50012220    -0.08500
C308        C  0.35425745  0.22921742  0.50204843    -0.05900
C309        C  0.40886200  0.19947835  0.49764725     0.00000
C310        C  0.45377072  0.23021265  0.49394636    -0.08400
C311        C  0.51528146  0.20316151  0.49690291     0.61900
H312        H  0.47461703  0.30964335  0.47934010     0.12600
H313        H  0.32070652  0.20700006  0.51235933     0.12600
C314        C  0.28891741  0.31224559  0.53072088     0.62200
F315        F  0.55144420  0.24009606  0.48737579    -0.23000
F316        F  0.52521757  0.16028201  0.45703470    -0.20300
F317        F  0.52822327  0.18316553  0.54935297    -0.20000
F318        F  0.28045488  0.36864196  0.53896224    -0.20100
F319        F  0.29159305  0.29095184  0.58327629    -0.20400
F320        F  0.24254566  0.29676352  0.50281918    -0.23100
C321        C  0.40534270  0.11059787  0.11225863    -0.05900
C322        C  0.34937388  0.10335316  0.09515034     0.00000
C323        C  0.31521891  0.15092673  0.06974063    -0.08500
C324        C  0.34241765  0.19439110  0.05385033    -0.05900
C325        C  0.39719770  0.19949470  0.07082102     0.00000
C326        C  0.42919391  0.15762995  0.10144200    -0.08400
C327        C  0.48810462  0.16281141  0.12292673     0.61900
H328        H  0.43180627  0.07729579  0.13307342     0.12600
H329        H  0.31856438  0.22848203  0.03154819     0.12600
C330        C  0.25072098  0.16606278  0.06253964     0.62200
F331        F  0.51246070  0.11716752  0.15212637    -0.23000
F332        F  0.48595533  0.20936583  0.15823882    -0.20300
F333        F  0.52214988  0.16759351  0.07865652    -0.20000
F334        F  0.21911082  0.13855167  0.09484839    -0.20100
F335        F  0.23566391  0.15881258  0.00711888    -0.20400
F336        F  0.23408702  0.22160495  0.07770766    -0.23100
C337        C  0.36558741  0.05504452  0.26948930    -0.05900
C338        C  0.38992982  0.00084430  0.28023035     0.00000
C339        C  0.40170423  0.96238961  0.23470893    -0.08500
C340        C  0.38560101  0.97943542  0.18074870    -0.05900
C341        C  0.35301135  0.03182133  0.16897542     0.00000
C342        C  0.34582876  0.07201701  0.21627839    -0.08400
C343        C  0.32076457  0.13390194  0.21615430     0.61900
H344        H  0.36168842  0.08497339  0.30445053     0.12600
H345        H  0.39826163  0.94951320  0.14789334     0.12600
C346        C  0.42952585  0.90265333  0.24234167     0.62200
F347        F  0.36285003  0.16500965  0.20934564    -0.23000
F348        F  0.29517993  0.15184368  0.26622332    -0.20300
F349        F  0.27966713  0.14590306  0.17637787    -0.20000
F350        F  0.39822669  0.87818852  0.27835648    -0.20100
F351        F  0.48387184  0.90125978  0.26318392    -0.20400
F352        F  0.43298206  0.87109543  0.19291818    -0.23100
C353        C  0.17770392  0.01414719  0.10180078    -0.05900
C354        C  0.16308825  0.02277914  0.04591387     0.00000
C355        C  0.20272678  0.03868963  0.01075068    -0.08500
C356        C  0.25636614  0.04446838  0.03339831    -0.05900
C357        C  0.27144121  0.03859572  0.09106393     0.00000
C358        C  0.22860340  0.02448281  0.12694428    -0.08400
C359        C  0.23027854  0.02151935  0.19090810     0.61900
H360        H  0.14676675  0.99954139  0.12647543     0.12600
H361        H  0.28759430  0.05431432  0.00564972     0.12600
C362        C  0.18881536  0.04921498  0.94986952     0.62200
F363        F  0.18191007  0.00674887  0.21154243    -0.23000
F364        F  0.23308085  0.07275591  0.21538207    -0.20300
F365        F  0.27366198  0.98262269  0.20975181    -0.20000
F366        F  0.13952073  0.08692691  0.94523120    -0.20100
F367        F  0.18220719  0.00000863  0.92175479    -0.20400
F368        F  0.23093244  0.07060149  0.92444466    -0.23100
C369        C  0.98880045  0.35224498  0.19059464    -0.05900
C370        C  0.99902277  0.39819746  0.15964285     0.00000
C371        C  0.99905680  0.44953861  0.19258926    -0.08500
C372        C  0.98935034  0.45083572  0.25013189    -0.05900
C373        C  0.98449608  0.40386987  0.27894004     0.00000
C374        C  0.98596969  0.35306019  0.24911775    -0.08400
C375        C  0.98359002  0.29998418  0.27880561     0.61900
H376        H  0.98216395  0.31422433  0.16986230     0.12600
H377        H  0.98694609  0.48993449  0.27399832     0.12600
C378        C  0.00816407  0.50589103  0.17354159     0.62200
F379        F  0.98287955  0.25485958  0.24192165    -0.23000
F380        F  0.93569088  0.30618689  0.31043340    -0.20300
F381        F  0.03067866  0.28824587  0.31323927    -0.20000
F382        F  0.95797383  0.54221613  0.17730958    -0.20100
F383        F  0.02806268  0.50613584  0.12092145    -0.20400
F384        F  0.04699051  0.52632128  0.20899772    -0.23100
C385        C  0.10685085  0.41304821  0.11698420    -0.05900
C386        C  0.06912443  0.39636504  0.07575327     0.00000
C387        C  0.09146034  0.38593141  0.01978642    -0.08500
C388        C  0.14755282  0.39393347  0.01029836    -0.05900
C389        C  0.18177955  0.41376431  0.05196127     0.03600
C390        C  0.15907525  0.42722018  0.10542099    -0.08400
C391        C  0.18535458  0.45949480  0.15211706     0.61900
H392        H  0.09586927  0.41774101  0.16006314     0.12600
H393        H  0.16638047  0.38249689  0.97016495     0.12600
C394        C  0.06162997  0.36083931  0.96993114     0.62200
F395        F  0.14722438  0.50589142  0.16758791    -0.23000
F396        F  0.23347318  0.47843876  0.13762544    -0.20300
F397        F  0.19709203  0.42681517  0.19775015    -0.20000
F398        F  0.08679878  0.36789723  0.92025714    -0.20100
F399        F  0.00628496  0.38500138  0.96372553    -0.20400
F400        F  0.06464473  0.30449890  0.97539778    -0.23100
C401        C  0.01293273  0.22936419  0.07739757    -0.05900
C402        C  0.96239612  0.22557750  0.04790651     0.00000
C403        C  0.93353081  0.27370212  0.02282168    -0.08500
C404        C  0.95228464  0.32450464  0.03469645    -0.05900
C405        C  0.99824396  0.33074003  0.07145465     0.00000
C406        C  0.03361605  0.27981064  0.08725277    -0.08400
C407        C  0.09299254  0.27585391  0.11362953     0.61900
H408        H  0.03721967  0.19131335  0.09189168     0.12600
H409        H  0.92883645  0.36022430  0.01575316     0.12600
C410        C  0.88217204  0.27291966  0.98456163     0.62200
F411        F  0.11398268  0.22284637  0.13018683    -0.23000
F412        F  0.09451804  0.31042357  0.16030043    -0.20300
F413        F  0.12979109  0.28845872  0.07516725    -0.20000
F414        F  0.84056165  0.25316462  0.01227777    -0.20100
F415        F  0.89703235  0.23981461  0.93737249    -0.20400
F416        F  0.85967260  0.32512706  0.96701681    -0.23100
C417        C  0.92636677  0.11330619  0.46529154    -0.05900
C418        C  0.98311354  0.08518194  0.46787869     0.00000
C419        C  0.02372552  0.11723362  0.49258235    -0.08500
C420        C  0.00791909  0.17544054  0.49893820    -0.05900
C421        C  0.95362322  0.20304763  0.48655672     0.00000
C422        C  0.91123603  0.17121900  0.47155135    -0.08400
C423        C  0.85111809  0.19790627  0.45796044     0.61900
H424        H  0.89357351  0.08926150  0.45393329     0.12600
H425        H  0.03854262  0.20084236  0.51377049     0.12600
C426        C  0.08200844  0.09393165  0.51581902     0.62200
F427        F  0.81923077  0.15979008  0.43534549    -0.23000
F428        F  0.85123024  0.23811834  0.41944016    -0.20300
F429        F  0.82533130  0.22162424  0.50590173    -0.20000
F430        F  0.11779111  0.07238257  0.47393020    -0.20100
F431        F  0.07764632  0.05472451  0.55399514    -0.20400
F432        F  0.10757923  0.13415996  0.54407026    -0.23100
C433        C  0.15403468  0.97718401  0.40604798    -0.05900
C434        C  0.17516217  0.95703662  0.45718011     0.00000
C435        C  0.13652214  0.94516840  0.49600840    -0.08500
C436        C  0.07881945  0.96469013  0.48684584    -0.05900
C437        C  0.05582937  0.99190038  0.43809025     0.00000
C438        C  0.09554342  0.98628206  0.39265094    -0.08400
C439        C  0.08474318  0.97994566  0.32975004     0.61900
H440        H  0.18409586  0.98094578  0.37421272     0.12600
H441        H  0.05216664  0.95972720  0.52037848     0.12600
C442        C  0.15562171  0.91257668  0.54738587     0.62200
F443        F  0.09803761  0.02497113  0.30355734    -0.23000
F444        F  0.03146449  0.97193229  0.31387214    -0.20300
F445        F  0.12002352  0.93329303  0.30911019    -0.20000
F446        F  0.19548317  0.93683315  0.57780093    -0.20100
F447        F  0.17824183  0.85896560  0.53054757    -0.20400
F448        F  0.11167743  0.90947404  0.58233482    -0.23100
C449        C  0.91182361  0.00939296  0.36779721    -0.05900
C450        C  0.96125031  0.03290698  0.38147600     0.00000
C451        C  0.97427469  0.07164978  0.34177154    -0.08500
C452        C  0.94613497  0.07387351  0.28958401    -0.05900
C453        C  0.90829520  0.03823878  0.27252203     0.00000
C454        C  0.88735008  0.00844635  0.31369556    -0.08400
C455        C  0.83937213  0.97617339  0.30125378     0.61900
H456        H  0.89070453  0.99199606  0.39948112     0.12600
H457        H  0.95559626  0.10282288  0.25991808     0.12600
C458        C  0.01364906  0.11454991  0.35117836     0.62200
F459        F  0.82228087  0.95373467  0.34838663    -0.23000
F460        F  0.85632278  0.93300792  0.26307723    -0.20300
F461        F  0.79338659  0.01108699  0.28002004    -0.20000
F462        F  0.03617643  0.12642237  0.30158214    -0.20100
F463        F  0.05868878  0.09737386  0.38569958    -0.20400
F464        F  0.98350208  0.16342267  0.37266857    -0.23100
C465        C  0.40277094  0.90728469  0.01562123    -0.05900
C466        C  0.45906786  0.91610494  0.01043824     0.00000
C467        C  0.46661083  0.97288311  0.02483313    -0.08500
C468        C  0.41827757  0.01206519  0.03760467    -0.05900
C469        C  0.37113428  0.99807069  0.06376722     0.00000
C470        C  0.36285076  0.94147925  0.04985387    -0.08400
C471        C  0.31391048  0.91400553  0.06783624     0.61900
H472        H  0.39085369  0.87056642  0.99590772     0.12600
H473        H  0.41947125  0.05429254  0.02845485     0.12600
C474        C  0.52193879  0.99670379  0.03078671     0.62200
F475        F  0.26556384  0.93253588  0.03777614    -0.23000
F476        F  0.30467911  0.92295097  0.12385119    -0.20300
F477        F  0.32466942  0.85698173  0.05851374    -0.20000
F478        F  0.55201930  0.99138964  0.98269769    -0.20100
F479        F  0.55433842  0.97264080  0.07393989    -0.20400
F480        F  0.51272132  0.05293946  0.04472659    -0.23100
C481        C  0.46716444  0.79565031  0.03583024    -0.05900
C482        C  0.50003265  0.80699028  0.99104487     0.00000
C483        C  0.53150253  0.75860813  0.96268319    -0.08500
C484        C  0.51703237  0.70569478  0.97112800    -0.05900
C485        C  0.47618354  0.69713394  0.00891456     0.00000
C486        C  0.45382570  0.74290450  0.04497315    -0.08400
C487        C  0.41611093  0.73758519  0.09367242     0.61900
H488        H  0.45139416  0.82853859  0.06500811     0.12600
H489        H  0.53802532  0.66980769  0.94765761     0.12600
C490        C  0.58185233  0.75951409  0.92529960     0.62200
F491        F  0.40278793  0.78661575  0.12505787    -0.23000
F492        F  0.44347698  0.69850016  0.12910201    -0.20300
F493        F  0.36584850  0.72269911  0.07410606    -0.20000
F494        F  0.62602398  0.77518671  0.95666054    -0.20100
F495        F  0.56829036  0.79444618  0.88214095    -0.20400
F496        F  0.60169686  0.70782830  0.90091374    -0.23100
C497        C  0.59506938  0.89144344  0.94035335    -0.05900
C498        C  0.56431973  0.87766426  0.98563484     0.00000
C499        C  0.59542846  0.87087026  0.03819021    -0.08500
C500        C  0.65020388  0.88545868  0.04306125    -0.05900
C501        C  0.67598141  0.90588488  0.99891682     0.00000
C502        C  0.64754849  0.90901526  0.94647309    -0.08400
C503        C  0.67107438  0.93168286  0.89600529     0.61900
H504        H  0.57832151  0.88964209  0.89864963     0.12600
H505        H  0.67408102  0.88075456  0.08187276     0.12600
C506        C  0.57345557  0.84892182  0.09031575     0.62200
F507        F  0.62954113  0.94780155  0.85626985    -0.23000
F508        F  0.71056464  0.89070680  0.87193459    -0.20300
F509        F  0.69501769  0.97803702  0.91119790    -0.20000
F510        F  0.57226550  0.79285830  0.08272606    -0.20100
F511        F  0.52086063  0.87733854  0.10337979    -0.20400
F512        F  0.60775313  0.85508440  0.13666610    -0.23100
C513        C  0.45939326  0.85132852  0.81493996    -0.05900
C514        C  0.46752689  0.90247176  0.79623861     0.00000
C515        C  0.47585135  0.94478214  0.83590779    -0.08500
C516        C  0.47957161  0.93276290  0.89259192    -0.05900
C517        C  0.47820143  0.87934771  0.91271319     0.00000
C518        C  0.45760994  0.84105475  0.87223484    -0.08400
C519        C  0.42665570  0.79300258  0.88278389     0.61900
H520        H  0.44849135  0.82074876  0.78411181     0.12600
H521        H  0.48703194  0.96532447  0.92133588     0.12600
C522        C  0.48335530  0.00201975  0.81859343     0.62200
F523        F  0.37910569  0.79628150  0.84841857    -0.23000
F524        F  0.40738786  0.79307944  0.93585135    -0.20300
F525        F  0.46076858  0.74318813  0.86957319    -0.20000
F526        F  0.43307108  0.02937556  0.79743644    -0.20100
F527        F  0.52417034  0.99716284  0.77849026    -0.20400
F528        F  0.49983933  0.03437745  0.86290502    -0.23100
C529        C  0.86487868  0.48841996  0.04990307    -0.05900
C530        C  0.88084144  0.51948771  0.00636225     0.00000
C531        C  0.94069310  0.51476849  0.99919501    -0.08500
C532        C  0.97753102  0.47504863  0.02926743    -0.05900
C533        C  0.96070408  0.43818450  0.06696895     0.00000
C534        C  0.90137089  0.44745920  0.07867000    -0.08400
C535        C  0.87323067  0.41869591  0.12304341     0.61900
H536        H  0.82241675  0.49754959  0.06409823     0.12600
H537        H  0.02156566  0.47397411  0.02357869     0.12600
C538        C  0.96883840  0.55280188  0.96386367     0.62200
F539        F  0.88108651  0.44342118  0.17484238    -0.23000
F540        F  0.89285411  0.36283337  0.12424834    -0.20300
F541        F  0.81561542  0.42315166  0.11340460    -0.20000
F542        F  0.96211350  0.60549948  0.98846938    -0.20100
F543        F  0.94776166  0.55468075  0.91009243    -0.20400
F544        F  0.02635484  0.53543169  0.95950915    -0.23100
C545        C  0.82828393  0.54476180  0.80456766    -0.05900
C546        C  0.87097831  0.49963763  0.79328250     0.00000
C547        C  0.88839455  0.46369614  0.83742387    -0.08500
C548        C  0.87309552  0.48196335  0.89225811    -0.05900
C549        C  0.83758557  0.53319403  0.90546671     0.00000
C550        C  0.80590033  0.55772335  0.85806622    -0.08400
C551        C  0.75039367  0.59832970  0.85917152     0.61900
H552        H  0.81080142  0.56992744  0.77044125     0.12600
H553        H  0.88956318  0.45512118  0.92516034     0.12600
C554        C  0.92070223  0.40539766  0.82760468     0.62200
F555        F  0.72214784  0.59699695  0.80812973    -0.23000
F556        F  0.75966884  0.65199946  0.86932232    -0.20300
F557        F  0.71395601  0.58449194  0.89698985    -0.20000
F558        F  0.97551858  0.40747477  0.81338334    -0.20100
F559        F  0.89413307  0.37814972  0.78555484    -0.20400
F560        F  0.92263004  0.37430827  0.87448458    -0.23100
C561        C  0.68168178  0.56468237  0.03475279    -0.05900
C562        C  0.67528302  0.50901832  0.02817281     0.00000
C563        C  0.71611573  0.47171925  0.99920865    -0.08500
C564        C  0.76300551  0.49118266  0.97907701    -0.05900
C565        C  0.77250229  0.54714647  0.98679563     0.00000
C566        C  0.72648291  0.58599255  0.01109873    -0.08400
C567        C  0.71537094  0.64931262  0.00924729     0.61900
H568        H  0.64759418  0.59306544  0.05422575     0.12600
H569        H  0.79522082  0.46087140  0.95993092     0.12600
C570        C  0.71092057  0.41075581  0.99110350     0.62200
F571        F  0.65934863  0.66679841  0.99498143    -0.23000
F572        F  0.74541897  0.67047850  0.97048014    -0.20300
F573        F  0.72525095  0.67300841  0.06113120    -0.20000
F574        F  0.66047466  0.40485790  0.96439326    -0.20100
F575        F  0.71313595  0.38743024  0.04256412    -0.20400
F576        F  0.75381527  0.38155018  0.95928238    -0.23100
C577        C  0.85991449  0.64526770  0.93076599    -0.05900
C578        C  0.84616629  0.61742817  0.97792899     0.00000
C579        C  0.84947004  0.64717995  0.03133220    -0.08500
C580        C  0.86100582  0.70210402  0.03260855    -0.05900
C581        C  0.87210153  0.72834218  0.98480487     0.00000
C582        C  0.87168807  0.69956250  0.93286027    -0.08400
C583        C  0.88641499  0.72489563  0.87965889     0.61900
H584        H  0.86459488  0.62418195  0.89096931     0.12600
H585        H  0.86357860  0.72513937  0.07191665     0.12600
C586        C  0.84908800  0.62192492  0.08824706     0.62200
F587        F  0.89195357  0.68691032  0.83479485    -0.23000
F588        F  0.93704038  0.74426597  0.88730705    -0.20300
F589        F  0.84444207  0.76819825  0.86601413    -0.20000
F590        F  0.89932986  0.58715734  0.09668100    -0.20100
F591        F  0.80505271  0.59342619  0.09332783    -0.20400
F592        F  0.84442570  0.66180955  0.13150637    -0.23100
C593        C  0.49455794  0.44217400  0.53790044    -0.05900
C594        C  0.46344127  0.47705861  0.57856431     0.00000
C595        C  0.40373394  0.47545682  0.57600732    -0.08500
C596        C  0.38359662  0.43527813  0.54019669    -0.05900
C597        C  0.41076842  0.41186490  0.49138423     0.00000
C598        C  0.47012998  0.41822047  0.49015455    -0.08400
C599        C  0.51019362  0.40740943  0.44038579     0.61900
H600        H  0.53946077  0.43443570  0.54195942     0.12600
H601        H  0.34289416  0.42624248  0.54857814     0.12600
C602        C  0.35840465  0.51158697  0.61091245     0.62200
F603        F  0.49405475  0.44710382  0.40184118    -0.23000
F604        F  0.51342922  0.35532051  0.41583986    -0.20300
F605        F  0.56530616  0.41227553  0.45524355    -0.20000
F606        F  0.30604888  0.51475309  0.58482392    -0.20100
F607        F  0.36755445  0.56546102  0.61810229    -0.20400
F608        F  0.35444924  0.48889160  0.66176873    -0.23100
C609        C  0.58422810  0.51387065  0.56845398    -0.05900
C610        C  0.56248692  0.49890703  0.61961524     0.00000
C611        C  0.60563166  0.47623720  0.66042150    -0.08500
C612        C  0.66281601  0.46487457  0.64413361    -0.05900
C613        C  0.68163031  0.48241376  0.59488721     0.00000
C614        C  0.64188487  0.50771849  0.55631132    -0.08400
C615        C  0.66050909  0.52775325  0.50203178     0.61900
H616        H  0.55468011  0.53109893  0.53668160     0.12600
H617        H  0.69493749  0.44506754  0.67263475     0.12600
C618        C  0.60172752  0.46421761  0.72221370     0.62200
F619        F  0.61524339  0.54922954  0.46841585    -0.23000
F620        F  0.69220224  0.48414685  0.47263009    -0.20300
F621        F  0.69280316  0.56892496  0.51335923    -0.20000
F622        F  0.61264264  0.40750827  0.72806078    -0.20100
F623        F  0.55278568  0.48497413  0.74820525    -0.20400
F624        F  0.64273549  0.48726362  0.75249346    -0.23100
C625        C  0.43701466  0.55153622  0.70994727    -0.05900
C626        C  0.46826234  0.50487937  0.68026633     0.00000
C627        C  0.46603599  0.45116294  0.70238471    -0.08500
C628        C  0.44030252  0.44890398  0.75424695    -0.05900
C629        C  0.41679553  0.49665121  0.78483681     0.00000
C630        C  0.41167617  0.54822767  0.76107086    -0.08400
C631        C  0.37794057  0.59941364  0.78962627     0.61900
H632        H  0.43087041  0.59206927  0.69362099     0.12600
H633        H  0.44165844  0.40932811  0.77314520     0.12600
C634        C  0.49065061  0.39479855  0.67593627     0.62200
F635        F  0.37053298  0.64476667  0.75629001    -0.23000
F636        F  0.40507617  0.61336828  0.83843197    -0.20300
F637        F  0.32518331  0.58842310  0.80201565    -0.20000
F638        F  0.51539826  0.35970128  0.71646323    -0.20100
F639        F  0.53164468  0.39692395  0.63797718    -0.20400
F640        F  0.44764046  0.37135661  0.65009540    -0.23100
C641        C  0.45092103  0.59376801  0.55831714    -0.05900
C642        C  0.48287529  0.57758143  0.60748967     0.00000
C643        C  0.50531393  0.62152003  0.63889819    -0.08500
C644        C  0.48550163  0.67670642  0.62613296    -0.05900
C645        C  0.45177500  0.69177752  0.57943569     0.00000
C646        C  0.43448287  0.64956631  0.54414008    -0.08400
C647        C  0.39941020  0.66278881  0.49137183     0.61900
H648        H  0.43785383  0.56266701  0.53007208     0.12600
H649        H  0.49817540  0.70985228  0.65228618     0.12600
C650        C  0.55178586  0.61390029  0.68421972     0.62200
F651        F  0.39103351  0.61537965  0.46066135    -0.23000
F652        F  0.42635299  0.69422167  0.45788691    -0.20300
F653        F  0.34699442  0.69182115  0.50506654    -0.20000
F654        F  0.60268347  0.59189926  0.66087449    -0.20100
F655        F  0.53949736  0.58119635  0.72513383    -0.20400
F656        F  0.55960827  0.66348614  0.71114654    -0.23100
C657        C  0.95194876  0.00538195  0.53737420    -0.05900
C658        C  0.95924811  0.98787839  0.48025038     0.00000
C659        C  0.94602806  0.93329788  0.46735486    -0.08500
C660        C  0.91200993  0.91051323  0.50396988    -0.05900
C661        C  0.90488071  0.92817724  0.56074082     0.00000
C662        C  0.93791776  0.97036872  0.57814171    -0.08400
C663        C  0.97333527  0.97242564  0.63195492     0.61900
H664        H  0.96819053  0.04175507  0.55328770     0.12600
H665        H  0.89410549  0.87509243  0.48792674     0.12600
C666        C  0.96546676  0.89509229  0.41757551     0.62200
F667        F  0.02496355  0.98725720  0.62134272    -0.23000
F668        F  0.98603572  0.92149238  0.65541047    -0.20300
F669        F  0.94743585  0.01233257  0.66943067    -0.20000
F670        F  0.00207841  0.91515817  0.38471047    -0.20100
F671        F  0.91945889  0.88512341  0.38520226    -0.20400
F672        F  0.99290965  0.84499506  0.43652661    -0.23100
C673        C  0.86178686  0.73797240  0.56380444    -0.05900
C674        C  0.91738099  0.71360932  0.57549079     0.00000
C675        C  0.95911281  0.74862792  0.58130209    -0.08500
C676        C  0.94188868  0.80677382  0.58076165    -0.05900
C677        C  0.88435777  0.83157535  0.57665788     0.00000
C678        C  0.84629670  0.79504290  0.55690365    -0.08400
C679        C  0.79547160  0.80944443  0.51804014     0.61900
H680        H  0.83082894  0.71123907  0.55361204     0.12600
H681        H  0.97268938  0.83373430  0.58965781     0.12600
C682        C  0.02092988  0.72579882  0.59153116     0.62200
F683        F  0.79856137  0.77077685  0.47370643    -0.23000
F684        F  0.79346430  0.85964613  0.49476293    -0.20300
F685        F  0.74618638  0.80813414  0.54565643    -0.20000
F686        F  0.04292714  0.69637680  0.54448537    -0.20100
F687        F  0.02670990  0.69151038  0.63617328    -0.20400
F688        F  0.05246470  0.76753416  0.60361985    -0.23100
C689        C  0.90807470  0.85199249  0.69139304    -0.05900
C690        C  0.88360686  0.90038538  0.66291667     0.00000
C691        C  0.87112544  0.95018716  0.69829907    -0.08500
C692        C  0.89656178  0.95099455  0.75205517    -0.05900
C693        C  0.92847558  0.90397881  0.77460255     0.00000
C694        C  0.93388988  0.85334748  0.74412524    -0.08400
C695        C  0.96758166  0.79952405  0.76405306     0.61900
H696        H  0.90674022  0.81096398  0.67404406     0.12600
H697        H  0.88907375  0.98814678  0.77891358     0.12600
C698        C  0.82903089  0.00184608  0.68409981     0.62200
F699        F  0.01033026  0.78127334  0.72708359    -0.23000
F700        F  0.93288078  0.75988136  0.76502434    -0.20300
F701        F  0.99209250  0.80471805  0.81631931    -0.20000
F702        F  0.77488499  0.99018928  0.68256920    -0.20100
F703        F  0.84074256  0.02161052  0.63424674    -0.20400
F704        F  0.82995164  0.04498319  0.72343162    -0.23100
C705        C  0.77305527  0.88418543  0.63187611    -0.05900
C706        C  0.80222041  0.91260453  0.59445129     0.00000
C707        C  0.76761927  0.95377285  0.56104864    -0.08500
C708        C  0.70824351  0.96109585  0.56692146    -0.05900
C709        C  0.68128474  0.93223440  0.60438204     0.00000
C710        C  0.71470380  0.89544656  0.63973014    -0.08400
C711        C  0.69043532  0.86714601  0.68608417     0.61900
H712        H  0.79684693  0.85222988  0.65664992     0.12600
H713        H  0.68117248  0.98837366  0.53982260     0.12600
C714        C  0.78789968  0.98735400  0.51520441     0.62200
F715        F  0.72867825  0.85840481  0.73019087    -0.23000
F716        F  0.67862476  0.81642823  0.66601715    -0.20300
F717        F  0.64203559  0.89912858  0.70689748    -0.20000
F718        F  0.80790855  0.95331552  0.47049585    -0.20100
F719        F  0.82841364  0.01741289  0.53426110    -0.20400
F720        F  0.74468848  0.02589018  0.49419076    -0.23100
loop_ 
_geom_bond_atom_site_label_1 
_geom_bond_atom_site_label_2 
_geom_bond_distance 
_geom_bond_site_symmetry_2 
_ccdc_geom_bond_type 
C1          C661   1.602       .  S
C1          C677   1.600       .  S
C1          C690   1.601       .  S
C1          C706   1.582       .  S
C2          C594   1.611       .  S
C2          C610   1.612       .  S
C2          C626   1.576       .  S
C2          C642   1.601       .  S
C3          C530   1.605   1_556  S
C3          C549   1.610       .  S
C3          C565   1.590       .  S
C3          C578   1.582       .  S
C4          C466   1.610   1_556  S
C4          C482   1.592       .  S
C4          C498   1.587       .  S
C4          C517   1.606       .  S
C5          C418   1.597       .  S
C5          C437   1.614   1_645  S
C5          C450   1.596       .  S
C5          C658   1.612   1_545  S
C6          C370   1.607   1_455  S
C6          C386   1.596       .  S
C6          C405   1.588   1_455  S
C6          C533   1.605   1_455  S
C7          C322   1.598       .  S
C7          C341   1.598       .  S
C7          C357   1.569       .  S
C7          C469   1.629   1_545  S
C8          C274   1.616       .  S
C8          C293   1.581       .  S
C8          C306   1.587       .  S
C8          C597   1.623       .  S
Zr9          O10   2.439       .  S
Zr9          O11   2.415       .  S
Zr9          O12   2.415       .  S
Zr9          O15   2.394       .  S
Zr9          O17   2.373       .  S
Zr9          O18   2.380   1_556  S
Zr9          O19   2.391       .  S
Zr9          O20   2.400   1_565  S
O10          H66   0.990       .  S
O10          H74   0.989       .  S
O11          C31   1.280       .  A
O12          C33   1.279       .  A
O13         Zr23   2.496       .  S
O13          C32   1.297       .  A
O14         Zr22   2.437   1_655  S
O14          C33   1.284       .  A
O15          C32   1.278   1_556  A
O16         Zr24   2.439       .  S
O16          C31   1.286   1_554  A
O17         Zr22   2.399   1_655  S
O17         Zr24   2.378   1_556  S
O18         Zr23   2.387       .  S
O18         Zr24   2.369       .  S
O18          H53   0.966       .  S
O19         Zr22   2.403   1_655  S
O19         Zr39   2.381   1_565  S
O19          H56   0.964   1_565  S
O20         Zr23   2.391   1_546  S
O20         Zr39   2.398       .  S
Zr21         O46   2.446   1_655  S
Zr21         O40   2.430       .  S
Zr21         O48   2.396       .  S
Zr21         O36   2.405   1_655  S
Zr21         O27   2.403   1_545  S
Zr21         O28   2.398   1_645  S
Zr21         O29   2.362   1_554  S
Zr21         O30   2.380       .  S
Zr22         O41   2.437   1_565  S
Zr22         O34   2.436       .  S
Zr22         O35   2.451       .  S
Zr22         O28   2.400   1_556  S
Zr22         O29   2.396   1_465  S
Zr23         O25   2.435   1_565  S
Zr23         O47   2.437       .  S
Zr23         O49   2.468   1_565  S
Zr23         O27   2.407       .  S
Zr23         O30   2.410   1_565  S
Zr24         O50   2.436       .  S
Zr24         O51   2.438   1_655  S
Zr24         O26   2.438   1_655  S
Zr24         O27   2.396       .  S
Zr24         O28   2.399   1_655  S
O25          H62   0.990       .  S
O26          H57   0.990   1_554  S
O26          H71   0.990       .  S
O28          H54   0.965       .  S
O29         Zr39   2.381       .  S
O30         Zr39   2.380   1_554  S
O30          H55   0.966       .  S
C31         C581   1.482       .  S
C32         C501   1.497   1_554  S
C33         C693   1.464       .  S
O34          H70   0.990       .  S
O35          C37   1.285   1_566  A
O36          C37   1.281       .  A
C37         C354   1.487       .  S
O38         Zr39   2.438       .  S
O38          H67   0.990       .  S
Zr39         O42   2.435       .  S
Zr39         O43   2.439   1_556  S
Zr39         O44   2.424   1_556  S
O40          C45   1.283       .  A
O41          H58   0.990       .  S
O41          H73   0.990       .  S
O42          H59   0.990       .  S
O43          H63   0.990   1_554  S
O43          H72   0.989       .  S
O44          C45   1.279       .  A
C45         C402   1.499       .  S
O46          H65   0.990       .  S
O46          H69   0.991       .  S
O47          H61   0.990       .  S
O47          H68   0.990       .  S
O48          C52   1.277       .  A
O49          C52   1.289       .  A
O50          H60   0.990       .  S
O51          H64   0.990       .  S
C52         C453   1.500       .  S
Zr75         O76   2.441       .  S
Zr75         O77   2.445       .  S
Zr75         O78   2.467       .  S
Zr75         O81   2.452       .  S
Zr75         O83   2.376       .  S
Zr75         O84   2.394       .  S
Zr75         O85   2.410       .  S
Zr75         O86   2.404       .  S
O76         H132   0.990       .  S
O76         H140   0.990       .  S
O77          C97   1.286       .  A
O78          C99   1.290       .  A
O79         Zr89   2.428   1_655  S
O79          C98   1.282       .  A
O80         Zr88   2.446       .  S
O80          C99   1.286       .  A
O81          C98   1.290       .  A
O82         Zr90   2.426       .  S
O82          C97   1.279       .  A
O83         Zr88   2.398       .  S
O83         Zr90   2.383       .  S
O84         Zr89   2.406   1_655  S
O84         Zr90   2.378       .  S
O84         H119   0.967       .  S
O85         Zr88   2.402       .  S
O85        Zr105   2.381       .  S
O85         H122   0.966       .  S
O86         Zr89   2.397   1_655  S
O86        Zr105   2.385       .  S
Zr87        O112   2.442       .  S
Zr87        O106   2.455       .  S
Zr87        O114   2.449       .  S
Zr87        O102   2.450   1_455  S
Zr87         O93   2.414       .  S
Zr87         O94   2.408   1_455  S
Zr87         O95   2.383   1_455  S
Zr87         O96   2.379   1_455  S
Zr88        O107   2.436       .  S
Zr88        O100   2.435       .  S
Zr88        O101   2.436       .  S
Zr88         O94   2.406       .  S
Zr88         O95   2.401       .  S
Zr89         O91   2.437       .  S
Zr89        O113   2.435       .  S
Zr89        O115   2.451       .  S
Zr89         O93   2.394       .  S
Zr89         O96   2.395   1_455  S
Zr90        O116   2.438   1_655  S
Zr90        O117   2.436   1_655  S
Zr90         O92   2.437       .  S
Zr90         O93   2.404   1_655  S
Zr90         O94   2.384       .  S
O91         H128   0.990       .  S
O92         H123   0.989       .  S
O92         H137   0.990       .  S
O94         H120   0.964       .  S
O95        Zr105   2.382       .  S
O96        Zr105   2.375       .  S
O96         H121   0.966   1_655  S
C97         C546   1.508       .  S
C98         C674   1.498       .  S
C99         C613   1.489       .  S
O100        H136   0.990       .  S
O101        C103   1.284       .  A
O102        C103   1.289       .  A
C103        C421   1.491       .  S
O104       Zr105   2.434       .  S
O104        H133   0.990       .  S
Zr105       O108   2.435       .  S
Zr105       O109   2.439       .  S
Zr105       O110   2.401       .  S
O106        C111   1.286   1_455  A
O107        H124   0.990       .  S
O107        H139   0.990       .  S
O108        H125   0.990       .  S
O109        H129   0.990       .  S
O109        H138   0.990       .  S
O110        C111   1.278       .  A
C111        C373   1.482       .  S
O112        H131   0.990       .  S
O112        H135   0.990       .  S
O113        H127   0.990       .  S
O113        H134   0.990       .  S
O114        C118   1.288       .  A
O115        C118   1.285       .  A
O116        H126   0.990       .  S
O117        H130   0.990       .  S
C118        C277   1.518       .  S
Zr141       O142   2.445       .  S
Zr141       O143   2.459       .  S
Zr141       O144   2.421       .  S
Zr141       O147   2.397       .  S
Zr141       O149   2.377       .  S
Zr141       O150   2.376   1_556  S
Zr141       O151   2.407       .  S
Zr141       O152   2.406   1_556  S
O142        H198   0.991       .  S
O142        H206   0.991       .  S
O143        C163   1.289   1_556  A
O144        C165   1.281       .  A
O145       Zr155   2.472       .  S
O145        C164   1.291       .  A
O146       Zr154   2.444       .  S
O146        C165   1.286       .  A
O147        C164   1.278   1_556  A
O148       Zr156   2.422       .  S
O148        C163   1.278       .  A
O149       Zr154   2.411       .  S
O149       Zr156   2.382   1_556  S
O150       Zr155   2.389       .  S
O150       Zr156   2.369       .  S
O150        H185   0.966       .  S
O151       Zr154   2.412       .  S
O151       Zr171   2.394       .  S
O151        H188   0.964       .  S
O152       Zr155   2.393       .  S
O152       Zr171   2.401   1_554  S
Zr153       O178   2.445       .  S
Zr153       O172   2.420       .  S
Zr153       O180   2.396       .  S
Zr153       O168   2.418       .  S
Zr153       O159   2.404       .  S
Zr153       O160   2.400       .  S
Zr153       O161   2.368       .  S
Zr153       O162   2.378       .  S
Zr154       O173   2.436       .  S
Zr154       O166   2.436       .  S
Zr154       O167   2.476       .  S
Zr154       O160   2.392   1_556  S
Zr154       O161   2.404   1_556  S
Zr155       O157   2.434       .  S
Zr155       O179   2.438       .  S
Zr155       O181   2.450       .  S
Zr155       O159   2.407       .  S
Zr155       O162   2.407       .  S
Zr156       O182   2.433       .  S
Zr156       O183   2.434       .  S
Zr156       O158   2.438       .  S
Zr156       O159   2.396       .  S
Zr156       O160   2.385       .  S
O157        H194   0.990       .  S
O158        H189   0.990       .  S
O158        H203   0.990       .  S
O160        H186   0.963       .  S
O161       Zr171   2.391   1_554  S
O162       Zr171   2.376   1_554  S
O162        H187   0.966       .  S
C163        C485   1.514       .  S
C164        C562   1.476       .  S
C165        C629   1.468       .  S
O166        H202   0.990       .  S
O167        C169   1.292   1_556  A
O168        C169   1.281       .  A
C169        C389   1.491       .  S
O170       Zr171   2.437       .  S
O170        H199   0.990       .  S
Zr171       O174   2.437       .  S
Zr171       O175   2.440   1_556  S
Zr171       O176   2.434   1_556  S
O172        C177   1.279       .  A
O173        H190   0.990       .  S
O173        H205   0.990       .  S
O174        H191   0.990       .  S
O175        H195   0.990       .  S
O175        H204   0.990       .  S
O176        C177   1.281       .  A
C177        C325   1.476       .  S
O178        H197   0.991       .  S
O178        H201   0.991       .  S
O179        H193   0.990       .  S
O179        H200   0.990       .  S
O180        C184   1.274       .  A
O181        C184   1.286       .  A
O182        H192   0.990       .  S
O183        H196   0.989       .  S
C184        C290   1.467       .  S
Zr207       O208   2.438       .  S
Zr207       O209   2.463       .  S
Zr207       O210   2.469       .  S
Zr207       O213   2.430       .  S
Zr207       O215   2.377       .  S
Zr207       O216   2.385       .  S
Zr207       O217   2.408       .  S
Zr207       O218   2.411       .  S
O208        H264   0.990       .  S
O208        H272   0.990       .  S
O209        C229   1.288       .  A
O210        C231   1.291       .  A
O211       Zr221   2.426       .  S
O211        C230   1.280       .  A
O212       Zr220   2.433   1_565  S
O212        C231   1.285       .  A
O213        C230   1.286       .  A
O214       Zr222   2.409       .  S
O214        C229   1.278       .  A
O215       Zr220   2.398   1_565  S
O215       Zr222   2.387       .  S
O216       Zr221   2.403       .  S
O216       Zr222   2.374       .  S
O216        H251   0.967       .  S
O217       Zr220   2.395   1_565  S
O217       Zr237   2.376       .  S
O217        H254   0.963       .  S
O218       Zr221   2.393       .  S
O218       Zr237   2.394       .  S
Zr219       O244   2.441       .  S
Zr219       O238   2.436       .  S
Zr219       O246   2.453   1_545  S
Zr219       O234   2.473       .  S
Zr219       O225   2.403   1_545  S
Zr219       O226   2.405       .  S
Zr219       O227   2.382       .  S
Zr219       O228   2.391   1_545  S
Zr220       O239   2.436       .  S
Zr220       O232   2.435       .  S
Zr220       O233   2.417       .  S
Zr220       O226   2.403       .  S
Zr220       O227   2.396       .  S
Zr221       O223   2.434       .  S
Zr221       O245   2.436       .  S
Zr221       O247   2.435       .  S
Zr221       O225   2.390       .  S
Zr221       O228   2.389       .  S
Zr222       O248   2.437       .  S
Zr222       O249   2.435   1_565  S
Zr222       O224   2.435   1_565  S
Zr222       O225   2.386       .  S
Zr222       O226   2.388   1_565  S
O223        H260   0.990       .  S
O224        H255   0.990       .  S
O224        H269   0.990       .  S
O226        H252   0.965       .  S
O227       Zr237   2.381   1_545  S
O228       Zr237   2.379       .  S
O228        H253   0.965       .  S
C229        C514   1.485       .  S
C230        C645   1.492       .  S
C231        C709   1.496       .  S
O232        H268   0.990       .  S
O233        C235   1.280       .  A
O234        C235   1.292       .  A
C235        C309   1.499       .  S
O236       Zr237   2.436       .  S
O236        H265   0.990       .  S
Zr237       O240   2.436       .  S
Zr237       O241   2.437       .  S
Zr237       O242   2.411       .  S
O238        C243   1.286   1_545  A
O239        H256   0.990       .  S
O239        H271   0.990       .  S
O240        H257   0.990       .  S
O241        H261   0.990       .  S
O241        H270   0.989       .  S
O242        C243   1.277       .  A
C243        C338   1.492   1_565  S
O244        H263   0.990       .  S
O244        H267   0.990       .  S
O245        H259   0.990       .  S
O245        H266   0.990       .  S
O246        C250   1.288       .  A
O247        C250   1.285       .  A
O248        H258   0.990       .  S
O249        H262   0.990       .  S
C250        C434   1.491       .  S
C273        C274   1.426       .  A
C273        C278   1.421       .  A
C273        H280   1.077       .  S
C274        C275   1.449       .  A
C275        C282   1.525       .  S
C275        C276   1.413       .  A
C276        C277   1.401       .  A
C276        H281   1.082       .  S
C277        C278   1.422       .  A
C278        C279   1.518       .  S
C279        F283   1.385       .  S
C279        F284   1.381       .  S
C279        F285   1.383       .  S
C282        F286   1.376       .  S
C282        F287   1.371       .  S
C282        F288   1.387       .  S
C289        C290   1.392       .  A
C289        C294   1.414       .  A
C289        H296   1.086       .  S
C290        C291   1.402       .  A
C291        C298   1.520       .  S
C291        C292   1.401       .  A
C292        C293   1.423       .  A
C292        H297   1.075       .  S
C293        C294   1.459       .  A
C294        C295   1.528       .  S
C295        F299   1.388       .  S
C295        F300   1.364       .  S
C295        F301   1.381       .  S
C298        F302   1.382       .  S
C298        F303   1.383       .  S
C298        F304   1.385       .  S
C305        C306   1.414       .  A
C305        C310   1.414       .  A
C305        H312   1.065       .  S
C306        C307   1.447       .  A
C307        C314   1.527       .  S
C307        C308   1.411       .  A
C308        C309   1.398       .  A
C308        H313   1.085       .  S
C309        C310   1.422       .  A
C310        C311   1.520       .  S
C311        F315   1.385       .  S
C311        F316   1.383       .  S
C311        F317   1.383       .  S
C314        F318   1.367       .  S
C314        F319   1.385       .  S
C314        F320   1.382       .  S
C321        C322   1.434       .  A
C321        C326   1.406       .  A
C321        H328   1.082       .  S
C322        C323   1.459       .  A
C323        C330   1.542       .  S
C323        C324   1.410       .  A
C324        C325   1.392       .  A
C324        H329   1.086       .  S
C325        C326   1.401       .  A
C326        C327   1.518       .  S
C327        F331   1.385       .  S
C327        F332   1.383       .  S
C327        F333   1.383       .  S
C330        F334   1.374       .  S
C330        F335   1.382       .  S
C330        F336   1.387       .  S
C337        C338   1.392       .  A
C337        C342   1.409       .  A
C337        H344   1.084       .  S
C338        C339   1.413   1_545  A
C339        C346   1.522       .  S
C339        C340   1.406       .  A
C340        C341   1.425   1_565  A
C340        H345   1.067       .  S
C341        C342   1.463       .  A
C342        C343   1.535       .  S
C343        F347   1.381       .  S
C343        F348   1.387       .  S
C343        F349   1.362       .  S
C346        F350   1.382       .  S
C346        F351   1.383       .  S
C346        F352   1.383       .  S
C353        C354   1.396       .  A
C353        C358   1.405       .  A
C353        H360   1.081   1_545  S
C354        C355   1.406       .  A
C355        C362   1.516   1_554  S
C355        C356   1.413       .  A
C356        C357   1.431       .  A
C356        H361   1.083       .  S
C357        C358   1.457       .  A
C358        C359   1.542       .  S
C359        F363   1.386       .  S
C359        F364   1.370       .  S
C359        F365   1.374   1_545  S
C362        F366   1.383       .  S
C362        F367   1.383       .  S
C362        F368   1.384       .  S
C369        C370   1.435       .  A
C369        C374   1.410       .  A
C369        H376   1.068       .  S
C370        C371   1.453       .  A
C371        C378   1.525   1_655  S
C371        C372   1.408       .  A
C372        C373   1.392       .  A
C372        H377   1.086       .  S
C373        C374   1.401       .  A
C374        C375   1.521       .  S
C375        F379   1.385       .  S
C375        F380   1.383       .  S
C375        F381   1.383   1_655  S
C378        F382   1.380   1_455  S
C378        F383   1.366       .  S
C378        F384   1.385       .  S
C385        C386   1.416       .  A
C385        C390   1.397       .  A
C385        H392   1.072       .  S
C386        C387   1.459       .  A
C387        C394   1.534   1_554  S
C387        C388   1.422       .  A
C388        C389   1.398       .  A
C388        H393   1.083   1_554  S
C389        C390   1.414       .  A
C390        C391   1.524       .  S
C391        F395   1.381       .  S
C391        F396   1.376       .  S
C391        F397   1.383       .  S
C394        F398   1.385       .  S
C394        F399   1.373       .  S
C394        F400   1.381       .  S
C401        C402   1.404   1_455  A
C401        C406   1.413       .  A
C401        H408   1.082       .  S
C402        C403   1.417       .  A
C403        C410   1.522   1_554  S
C403        C404   1.405       .  A
C404        C405   1.419       .  A
C404        H409   1.073       .  S
C405        C406   1.449   1_655  A
C406        C407   1.537       .  S
C407        F411   1.385       .  S
C407        F412   1.376       .  S
C407        F413   1.378       .  S
C410        F414   1.382   1_556  S
C410        F415   1.383       .  S
C410        F416   1.383       .  S
C417        C418   1.426       .  A
C417        C422   1.406       .  A
C417        H424   1.081       .  S
C418        C419   1.448   1_655  A
C419        C426   1.525       .  S
C419        C420   1.415       .  A
C420        C421   1.400   1_455  A
C420        H425   1.082       .  S
C421        C422   1.411       .  A
C422        C423   1.520       .  S
C423        F427   1.385       .  S
C423        F428   1.383       .  S
C423        F429   1.382       .  S
C426        F430   1.373       .  S
C426        F431   1.377       .  S
C426        F432   1.386       .  S
C433        C434   1.397       .  A
C433        C438   1.419       .  A
C433        H440   1.086       .  S
C434        C435   1.409       .  A
C435        C442   1.521       .  S
C435        C436   1.407       .  A
C436        C437   1.428       .  A
C436        H441   1.068       .  S
C437        C438   1.459       .  A
C438        C439   1.532       .  S
C439        F443   1.381   1_565  S
C439        F444   1.370       .  S
C439        F445   1.386       .  S
C442        F446   1.383       .  S
C442        F447   1.381       .  S
C442        F448   1.384       .  S
C449        C450   1.428       .  A
C449        C454   1.413       .  A
C449        H456   1.070   1_545  S
C450        C451   1.452       .  A
C451        C458   1.531   1_655  S
C451        C452   1.407       .  A
C452        C453   1.401       .  A
C452        H457   1.083       .  S
C453        C454   1.409       .  A
C454        C455   1.518   1_545  S
C455        F459   1.384       .  S
C455        F460   1.383       .  S
C455        F461   1.383   1_565  S
C458        F462   1.386       .  S
C458        F463   1.368       .  S
C458        F464   1.379   1_455  S
C465        C466   1.417       .  A
C465        C470   1.420       .  A
C465        H472   1.073   1_554  S
C466        C467   1.455       .  A
C467        C474   1.540       .  S
C467        C468   1.412   1_565  A
C468        C469   1.411   1_545  A
C468        H473   1.072       .  S
C469        C470   1.453       .  A
C470        C471   1.531       .  S
C471        F475   1.375       .  S
C471        F476   1.373       .  S
C471        F477   1.385       .  S
C474        F478   1.371   1_554  S
C474        F479   1.375       .  S
C474        F480   1.384   1_565  S
C481        C482   1.418   1_554  A
C481        C486   1.409       .  A
C481        H488   1.070       .  S
C482        C483   1.449       .  A
C483        C490   1.533       .  S
C483        C484   1.420       .  A
C484        C485   1.405   1_556  A
C484        H489   1.081       .  S
C485        C486   1.425       .  A
C486        C487   1.525       .  S
C487        F491   1.383       .  S
C487        F492   1.383       .  S
C487        F493   1.383       .  S
C490        F494   1.381       .  S
C490        F495   1.374       .  S
C490        F496   1.385       .  S
C497        C498   1.418       .  A
C497        C502   1.402       .  A
C497        H504   1.071       .  S
C498        C499   1.452   1_556  A
C499        C506   1.528       .  S
C499        C500   1.422       .  A
C500        C501   1.397   1_554  A
C500        H505   1.082       .  S
C501        C502   1.416       .  A
C502        C503   1.519       .  S
C503        F507   1.385       .  S
C503        F508   1.381       .  S
C503        F509   1.384       .  S
C506        F510   1.380       .  S
C506        F511   1.377       .  S
C506        F512   1.385       .  S
C513        C514   1.395       .  A
C513        C518   1.415       .  A
C513        H520   1.086       .  S
C514        C515   1.409       .  A
C515        C522   1.520   1_565  S
C515        C516   1.405       .  A
C516        C517   1.421       .  A
C516        H521   1.064       .  S
C517        C518   1.452       .  A
C518        C519   1.526       .  S
C519        F523   1.386       .  S
C519        F524   1.370       .  S
C519        F525   1.382       .  S
C522        F526   1.379       .  S
C522        F527   1.384   1_545  S
C522        F528   1.385       .  S
C529        C530   1.420       .  A
C529        C534   1.413       .  A
C529        H536   1.072       .  S
C530        C531   1.441   1_554  A
C531        C538   1.537       .  S
C531        C532   1.414   1_556  A
C532        C533   1.421       .  A
C532        H537   1.069   1_655  S
C533        C534   1.443       .  A
C534        C535   1.537       .  S
C535        F539   1.380       .  S
C535        F540   1.372       .  S
C535        F541   1.387       .  S
C538        F542   1.380       .  S
C538        F543   1.375       .  S
C538        F544   1.385   1_655  S
C545        C546   1.401       .  A
C545        C550   1.411       .  A
C545        H552   1.083       .  S
C546        C547   1.420       .  A
C547        C554   1.520       .  S
C547        C548   1.411       .  A
C548        C549   1.424       .  A
C548        H553   1.077       .  S
C549        C550   1.451       .  A
C550        C551   1.528       .  S
C551        F555   1.387       .  S
C551        F556   1.377       .  S
C551        F557   1.372       .  S
C554        F558   1.382       .  S
C554        F559   1.384       .  S
C554        F560   1.385       .  S
C561        C562   1.397       .  A
C561        C566   1.417       .  A
C561        H568   1.086       .  S
C562        C563   1.403   1_554  A
C563        C570   1.520       .  S
C563        C564   1.402       .  A
C564        C565   1.428       .  A
C564        H569   1.078       .  S
C565        C566   1.453   1_556  A
C566        C567   1.531       .  S
C567        F571   1.384   1_554  S
C567        F572   1.367   1_554  S
C567        F573   1.381       .  S
C570        F574   1.383       .  S
C570        F575   1.383   1_556  S
C570        F576   1.383       .  S
C577        C578   1.424       .  A
C577        C582   1.402       .  A
C577        H584   1.065       .  S
C578        C579   1.452   1_556  A
C579        C586   1.529       .  S
C579        C580   1.415       .  A
C580        C581   1.396   1_554  A
C580        H585   1.083       .  S
C581        C582   1.405       .  A
C582        C583   1.523       .  S
C583        F587   1.385       .  S
C583        F588   1.383       .  S
C583        F589   1.383       .  S
C586        F590   1.375       .  S
C586        F591   1.373       .  S
C586        F592   1.386       .  S
C593        C594   1.413       .  A
C593        C598   1.420       .  A
C593        H600   1.069       .  S
C594        C595   1.444       .  A
C595        C602   1.530       .  S
C595        C596   1.412       .  A
C596        C597   1.411       .  A
C596        H601   1.066       .  S
C597        C598   1.464       .  A
C598        C599   1.544       .  S
C599        F603   1.376       .  S
C599        F604   1.370       .  S
C599        F605   1.386       .  S
C602        F606   1.384       .  S
C602        F607   1.374       .  S
C602        F608   1.379       .  S
C609        C610   1.437       .  A
C609        C614   1.409       .  A
C609        H616   1.081       .  S
C610        C611   1.467       .  A
C611        C618   1.536       .  S
C611        C612   1.421       .  A
C612        C613   1.391       .  A
C612        H617   1.086       .  S
C613        C614   1.402       .  A
C614        C615   1.520       .  S
C615        F619   1.385       .  S
C615        F620   1.383       .  S
C615        F621   1.383       .  S
C618        F622   1.382       .  S
C618        F623   1.361       .  S
C618        F624   1.387       .  S
C625        C626   1.431       .  A
C625        C630   1.399       .  A
C625        H632   1.070       .  S
C626        C627   1.451       .  A
C627        C634   1.525       .  S
C627        C628   1.415       .  A
C628        C629   1.397       .  A
C628        H633   1.084       .  S
C629        C630   1.396       .  A
C630        C631   1.522       .  S
C631        F635   1.385       .  S
C631        F636   1.382       .  S
C631        F637   1.384       .  S
C634        F638   1.385       .  S
C634        F639   1.372       .  S
C634        F640   1.382       .  S
C641        C642   1.427       .  A
C641        C646   1.413       .  A
C641        H648   1.075       .  S
C642        C643   1.452       .  A
C643        C650   1.534       .  S
C643        C644   1.402       .  A
C644        C645   1.394       .  A
C644        H649   1.081       .  S
C645        C646   1.413       .  A
C646        C647   1.521       .  S
C647        F651   1.385       .  S
C647        F652   1.383       .  S
C647        F653   1.383       .  S
C650        F654   1.378       .  S
C650        F655   1.366       .  S
C650        F656   1.386       .  S
C657        C658   1.426   1_545  A
C657        C662   1.415   1_545  A
C657        H664   1.079       .  S
C658        C659   1.441       .  A
C659        C666   1.519       .  S
C659        C660   1.412       .  A
C660        C661   1.418       .  A
C660        H665   1.080       .  S
C661        C662   1.443       .  A
C662        C663   1.532       .  S
C663        F667   1.385   1_655  S
C663        F668   1.377       .  S
C663        F669   1.379   1_565  S
C666        F670   1.364   1_655  S
C666        F671   1.383       .  S
C666        F672   1.384       .  S
C673        C674   1.399       .  A
C673        C678   1.401       .  A
C673        H680   1.085       .  S
C674        C675   1.424       .  A
C675        C682   1.518   1_655  S
C675        C676   1.416       .  A
C676        C677   1.420       .  A
C676        H681   1.081       .  S
C677        C678   1.438       .  A
C678        C679   1.522       .  S
C679        F683   1.386       .  S
C679        F684   1.367       .  S
C679        F685   1.382       .  S
C682        F686   1.382       .  S
C682        F687   1.383       .  S
C682        F688   1.385       .  S
C689        C690   1.429       .  A
C689        C694   1.397       .  A
C689        H696   1.074       .  S
C690        C691   1.447       .  A
C691        C698   1.530   1_565  S
C691        C692   1.415       .  A
C692        C693   1.397       .  A
C692        H697   1.083       .  S
C693        C694   1.398       .  A
C694        C695   1.519       .  S
C695        F699   1.383   1_655  S
C695        F700   1.382       .  S
C695        F701   1.382       .  S
C698        F702   1.378   1_545  S
C698        F703   1.367       .  S
C698        F704   1.386       .  S
C705        C706   1.429       .  A
C705        C710   1.403       .  A
C705        H712   1.082       .  S
C706        C707   1.454       .  A
C707        C714   1.542       .  S
C707        C708   1.421       .  A
C708        C709   1.406       .  A
C708        H713   1.081       .  S
C709        C710   1.405       .  A
C710        C711   1.519       .  S
C711        F715   1.385       .  S
C711        F716   1.380       .  S
C711        F717   1.384       .  S
C714        F718   1.376       .  S
C714        F719   1.371   1_565  S
C714        F720   1.385   1_565  S
