geometry optimzed in LAMMPS
_audit_creation_date              2020-11-30 
_audit_creation_method            'lammps2cif' 
_symmetry_space_group_name_H-M    'P1' 
_symmetry_Int_Tables_number       1 
_symmetry_cell_setting            triclinic 
loop_ 
_symmetry_equiv_pos_as_xyz 
  x,y,z 
_cell_length_a                    41.91263232981448 
_cell_length_b                    42.31246014519982 
_cell_length_c                    42.028006933593794 
_cell_angle_alpha                 89.25820683343697 
_cell_angle_beta                  89.77381777837994 
_cell_angle_gamma                 87.85639408689089 
loop_ 
_atom_site_label 
_atom_site_type_symbol 
_atom_site_fract_x 
_atom_site_fract_y 
_atom_site_fract_z 
_atom_site_charge 
N1          N  0.44967787  0.30147488  0.57017658    -0.06950
N2          N  0.45162316  0.30285588  0.60148890    -0.59070
N3          N  0.42025003  0.31472704  0.49666752    -0.06630
N4          N  0.39718807  0.33015247  0.48210385    -0.61200
N5          N  0.40986554  0.29006342  0.51219732    -0.06230
N6          N  0.37847087  0.29002353  0.51035178    -0.59050
N7          N  0.45487724  0.32922858  0.55721161    -0.05910
N8          N  0.45984551  0.35007083  0.57925887    -0.61550
C9          C  0.45732310  0.33356351  0.60664145     0.95220
C10         C  0.37122612  0.31445362  0.49022852     0.95000
N11         N  0.49904326  0.33152656  0.44349777    -0.07140
N12         N  0.49652388  0.32702615  0.41290290    -0.59650
N13         N  0.51005560  0.35396649  0.51818107    -0.05260
N14         N  0.51715202  0.37049511  0.54336791    -0.60900
N15         N  0.53604357  0.34137289  0.50537527    -0.07170
N16         N  0.56140448  0.34907871  0.52134503    -0.59920
N17         N  0.47154029  0.34078722  0.45564261    -0.04900
N18         N  0.44948875  0.34226477  0.43318485    -0.60990
Mn19       Mn  0.46357021  0.33633015  0.50664445     1.18440
C20         C  0.46559054  0.33294511  0.40671944     0.97300
C21         C  0.54919603  0.36685982  0.54517408     0.97970
N22         N  0.43871445  0.21799120  0.51408711    -0.07190
N23         N  0.40854454  0.21383282  0.50915765    -0.63500
N24         N  0.50552096  0.22951901  0.55360444    -0.05990
N25         N  0.52516691  0.23491286  0.57829312    -0.64170
N26         N  0.47635340  0.23160990  0.56482524    -0.06700
N27         N  0.47532719  0.23457629  0.59542985    -0.63760
N28         N  0.45460309  0.22137970  0.48763961    -0.05590
N29         N  0.43266978  0.22675125  0.46442902    -0.64450
Mn30       Mn  0.44327158  0.26020847  0.54054782     1.10660
C31         C  0.40335448  0.22140999  0.47874613     0.98530
C32         C  0.50526212  0.23755022  0.60469812     0.98600
N33         N  0.56739499  0.27581230  0.49545735    -0.06700
N34         N  0.59752226  0.28234266  0.49864922    -0.62080
N35         N  0.51554864  0.24068959  0.44283653    -0.06020
N36         N  0.50736195  0.22658507  0.41580470    -0.58810
N37         N  0.52875764  0.26754697  0.43561378    -0.07330
N38         N  0.53069554  0.27192769  0.40463898    -0.61640
N39         N  0.56172537  0.24653823  0.50379895    -0.06320
N40         N  0.58921452  0.23233492  0.51325206    -0.58830
Mn41       Mn  0.53359306  0.30481119  0.47028497     1.20190
Mn42       Mn  0.50974689  0.23108305  0.49672543     1.10090
Cl43       Cl  0.48829611  0.28317248  0.50425791    -0.86800
C44         C  0.61118172  0.25552041  0.51010577     0.95530
C45         C  0.51723982  0.24672585  0.39205920     0.95330
N46         N  0.49556292  0.46323002  0.33696972    -0.06950
N47         N  0.47912689  0.44152272  0.35150998    -0.59070
N48         N  0.55772338  0.50604739  0.32063188    -0.06630
N49         N  0.58589369  0.49691597  0.33119728    -0.61200
N50         N  0.53938168  0.51660035  0.34391972    -0.06230
N51         N  0.55477568  0.51327586  0.37110844    -0.59050
N52         N  0.51357759  0.45076210  0.31477837    -0.05910
N53         N  0.50996019  0.42013798  0.31336986    -0.61550
C54         C  0.48830225  0.41486319  0.33630390     0.95220
C55         C  0.58368126  0.50080202  0.36260419     0.95000
N56         N  0.55509743  0.51955379  0.22366293    -0.07140
N57         N  0.58160288  0.52731158  0.20755411    -0.59650
N58         N  0.52028251  0.45396523  0.24405351    -0.05260
N59         N  0.52026557  0.42321269  0.24679748    -0.60900
N60         N  0.50262250  0.46487769  0.22016453    -0.07170
N61         N  0.48939744  0.43991817  0.20651176    -0.59920
N62         N  0.56446489  0.50697501  0.25089027    -0.04900
N63         N  0.59520810  0.50633950  0.25462557    -0.60990
Mn64       Mn  0.53890955  0.47995219  0.28204218     1.18440
C65         C  0.60634954  0.51872458  0.22804656     0.97300
C66         C  0.50111104  0.41408423  0.22396078     0.97970
N67         N  0.48105572  0.56416605  0.33897701    -0.07190
N68         N  0.49665383  0.58394184  0.35634782    -0.63500
N69         N  0.42423092  0.52122834  0.30370796    -0.05990
N70         N  0.40328320  0.50328179  0.29012801    -0.64170
N71         N  0.43873608  0.50545360  0.32691094    -0.06700
N72         N  0.42759575  0.47674376  0.32901840    -0.63760
N73         N  0.46616272  0.57942810  0.31587424    -0.05590
N74         N  0.47085420  0.60993602  0.31691625    -0.64450
Mn75       Mn  0.48806525  0.51337121  0.33836407     1.10660
C76         C  0.48973725  0.61218527  0.34227846     0.98530
C77         C  0.40581422  0.47525684  0.30559694     0.98600
N78         N  0.44287627  0.52175273  0.21203035    -0.06700
N79         N  0.41924923  0.51457887  0.19174671    -0.62080
N80         N  0.47562378  0.58537997  0.24478210    -0.06020
N81         N  0.47649124  0.61581086  0.24898366    -0.58810
N82         N  0.49623735  0.57541038  0.22294602    -0.07330
N83         N  0.51226331  0.60053786  0.21246169    -0.61640
N84         N  0.42907537  0.53551333  0.23645610    -0.06320
N85         N  0.39821438  0.53796376  0.23421617    -0.58830
Mn86       Mn  0.49942830  0.52030888  0.21617664     1.20190
Mn87       Mn  0.44839580  0.55601676  0.27563634     1.10090
Cl88       Cl  0.49399131  0.51769658  0.27761175    -0.86800
C89         C  0.39127628  0.52516562  0.20682587     0.95530
C90         C  0.49905006  0.62575690  0.22916180     0.95330
N91         N  0.48284317  0.70815821  0.52760734    -0.06950
N92         N  0.45393456  0.70224418  0.51928924    -0.59070
N93         N  0.54885998  0.71060342  0.56997759    -0.06630
N94         N  0.56845367  0.70355008  0.59382187    -0.61200
N95         N  0.52660908  0.73105730  0.57917094    -0.06230
N96         N  0.53068344  0.73859917  0.60898421    -0.59050
N97         N  0.50365959  0.68830114  0.51472779    -0.05910
N98         N  0.48849631  0.66866339  0.49600015    -0.61550
C99         C  0.45715347  0.67773867  0.49997073     0.95220
C100        C  0.55680623  0.72137095  0.61818165     0.95000
N101        N  0.61087922  0.74161435  0.50508139    -0.07140
N102        N  0.63863253  0.75176223  0.51344855    -0.59650
N103        N  0.56100218  0.69346303  0.46846473    -0.05260
N104        N  0.55124363  0.67082243  0.45008814    -0.60900
N105        N  0.57148969  0.71666791  0.45096216    -0.07170
N106        N  0.56992857  0.71044750  0.42060734    -0.59920
N107        N  0.60288329  0.71757790  0.52294658    -0.04900
N108        N  0.62591985  0.71035273  0.54340683    -0.60990
Mn109      Mn  0.55452742  0.69997964  0.51931227     1.18440
C110        C  0.64861403  0.73170665  0.53681334     0.97300
C111        C  0.55766595  0.68181106  0.42043352     0.97970
N112        N  0.49839381  0.79666805  0.56729487    -0.07190
N113        N  0.49675145  0.79642540  0.59809108    -0.63500
N114        N  0.46862076  0.80024922  0.49636919    -0.05990
N115        N  0.44298230  0.80855680  0.47834958    -0.64170
N116        N  0.46097734  0.77593359  0.51419542    -0.06700
N117        N  0.43167465  0.76773046  0.50964239    -0.63760
N118        N  0.51905271  0.81643312  0.55617186    -0.05590
N119        N  0.53430099  0.82824243  0.58141754    -0.64450
Mn120      Mn  0.49206429  0.75261639  0.54706438     1.10660
C121        C  0.51919475  0.81530170  0.60772530     0.98530
C122        C  0.41980342  0.78770835  0.48742241     0.98600
N123        N  0.54903586  0.78387764  0.43704414    -0.06700
N124        N  0.54916294  0.77754248  0.40691098    -0.62080
N125        N  0.57787134  0.82239524  0.50343476    -0.06020
N126        N  0.60010801  0.83424019  0.52266234    -0.58810
N127        N  0.59315636  0.80729223  0.48082400    -0.07330
N128        N  0.62376926  0.81065018  0.48159074    -0.61640
N129        N  0.52657560  0.80478849  0.44506473    -0.06320
N130        N  0.50992253  0.81249060  0.41855374    -0.58830
Mn131      Mn  0.58107503  0.76203738  0.46834475     1.20190
Mn132      Mn  0.52262646  0.81439378  0.50034732     1.10090
Cl133      Cl  0.53709231  0.75740656  0.50831060    -0.86800
C134        C  0.52512725  0.79516072  0.39483728     0.95530
C135        C  0.62896648  0.82671283  0.50771150     0.95330
N136        N  0.67482148  0.52619814  0.45233332    -0.06950
N137        N  0.67742186  0.50298727  0.43189602    -0.59070
N138        N  0.66081466  0.58720894  0.50223184    -0.06630
N139        N  0.65483903  0.61375953  0.51755717    -0.61200
N140        N  0.67900606  0.59265383  0.47769634    -0.06230
N141        N  0.68473773  0.62261776  0.47486055    -0.59050
N142        N  0.65371031  0.51959464  0.47444841    -0.05910
N143        N  0.64186149  0.49171129  0.46944825    -0.61550
C144        C  0.65708932  0.48146923  0.44299217     0.95220
C145        C  0.67016670  0.63541818  0.50000546     0.95000
N146        N  0.69227208  0.54261913  0.58397185    -0.07140
N147        N  0.70294912  0.56238706  0.60509835    -0.59650
N148        N  0.65308150  0.49278196  0.54089937    -0.05260
N149        N  0.62632041  0.47822315  0.54536529    -0.60900
N150        N  0.67654994  0.47790997  0.55579784    -0.07170
N151        N  0.66635284  0.45291718  0.57125265    -0.59920
N152        N  0.66939344  0.55665241  0.56717978    -0.04900
N153        N  0.66423236  0.58580147  0.57662953    -0.60990
Mn154      Mn  0.65746148  0.53954107  0.52113387     1.18440
C155        C  0.68535652  0.58947136  0.60026215     0.97300
C156        C  0.63490381  0.45373485  0.56461570     0.97970
N157        N  0.75167672  0.58961067  0.47598747    -0.07190
N158        N  0.74946517  0.62073876  0.47415079    -0.63500
N159        N  0.77193512  0.51540885  0.45404114    -0.05990
N160        N  0.78795121  0.50061251  0.43024323    -0.64170
N161        N  0.74454162  0.52576802  0.44247586    -0.06700
N162        N  0.74039138  0.51789048  0.41308118    -0.63760
N163        N  0.77436023  0.58021470  0.49615374    -0.05590
N164        N  0.78688662  0.60577477  0.50913458    -0.64450
Mn165      Mn  0.71257642  0.55874699  0.46133636     1.10660
C166        C  0.77104272  0.63113065  0.49478311     0.98530
C167        C  0.76699679  0.50232114  0.40475739     0.98600
N168        N  0.74945036  0.46671959  0.54186616    -0.06700
N169        N  0.74524057  0.43620981  0.54372324    -0.62080
N170        N  0.78197811  0.53721486  0.56276174    -0.06020
N171        N  0.79979558  0.55291816  0.58369342    -0.58810
N172        N  0.75954275  0.52379906  0.57917660    -0.07330
N173        N  0.76108731  0.52891799  0.60940035    -0.61640
N174        N  0.77120662  0.47381512  0.52027997    -0.06320
N175        N  0.78145539  0.44711594  0.50630531    -0.58830
Mn176      Mn  0.71950919  0.50178011  0.56525600     1.20190
Mn177      Mn  0.77823425  0.52675167  0.50813884     1.10090
Cl178      Cl  0.71729491  0.53159399  0.51393716    -0.86800
C179        C  0.76516623  0.42394708  0.52176874     0.95530
C180        C  0.78571246  0.54687552  0.61303561     0.95330
N181        N  0.55247390  0.45631345  0.68307832    -0.06950
N182        N  0.54759987  0.42590444  0.68702291    -0.59070
N183        N  0.57864164  0.52531074  0.65684004    -0.06630
N184        N  0.59317964  0.54862193  0.64308512    -0.61200
N185        N  0.59486893  0.51431243  0.68143656    -0.06230
N186        N  0.62068422  0.53054383  0.68521667    -0.59050
N187        N  0.53593959  0.46814005  0.65898552    -0.05910
N188        N  0.51909318  0.44589452  0.64627062    -0.61550
C189        C  0.52687593  0.41983494  0.66384319     0.95220
C190        C  0.61910210  0.55179204  0.66114615     0.95000
N191        N  0.49736365  0.58447084  0.66849544    -0.07140
N192        N  0.49918544  0.61487661  0.67165695    -0.59650
N193        N  0.47811931  0.51206957  0.65123768    -0.05260
N194        N  0.46531146  0.48733026  0.63851767    -0.60900
N195        N  0.45827273  0.52557798  0.67147150    -0.07170
N196        N  0.43163610  0.51010055  0.67308450    -0.59920
N197        N  0.52132653  0.57253362  0.65193111    -0.04900
N198        N  0.54108417  0.59557660  0.64487990    -0.60990
Mn199      Mn  0.52872507  0.51969302  0.65279427     1.18440
C200        C  0.52634082  0.62189474  0.65745908     0.97300
C201        C  0.43656731  0.48595745  0.65272041     0.97970
N202        N  0.59095664  0.51629737  0.75289115    -0.07190
N203        N  0.62141157  0.52192535  0.75321913    -0.63500
N204        N  0.52544055  0.47347817  0.77273719    -0.05990
N205        N  0.50788125  0.44961714  0.78331480    -0.64170
N206        N  0.54862164  0.46139595  0.75487469    -0.06700
N207        N  0.54844074  0.43054484  0.75418922    -0.63760
N208        N  0.57423233  0.53412560  0.77278757    -0.05590
N209        N  0.59467886  0.55349297  0.78671928    -0.64450
Mn210      Mn  0.57239656  0.48665924  0.71820497     1.10660
C211        C  0.62429306  0.54489176  0.77416541     0.98530
C212        C  0.52343077  0.42285021  0.77188477     0.98600
N213        N  0.45081775  0.53566426  0.74055524    -0.06700
N214        N  0.42069471  0.53069263  0.73643303    -0.62080
N215        N  0.51165319  0.58261432  0.76420479    -0.06020
N216        N  0.52570089  0.60771611  0.77648207    -0.58810
N217        N  0.49360501  0.59239799  0.74012053    -0.07330
N218        N  0.49427849  0.62339966  0.73631778    -0.61640
N219        N  0.46256835  0.52203003  0.76634283    -0.06320
N220        N  0.43846533  0.50681777  0.78061707    -0.58830
Mn221      Mn  0.47459498  0.55968757  0.70508167     1.20190
Mn222      Mn  0.51821141  0.52819876  0.77216915     1.10090
Cl223      Cl  0.52368357  0.52367967  0.71267083    -0.86800
C224        C  0.41238573  0.51270403  0.76083450     0.95530
C225        C  0.51425309  0.63323940  0.75877353     0.95330
N226        N  0.35362556  0.47752533  0.47259566    -0.06950
N227        N  0.36536423  0.45364688  0.49027812    -0.59070
N228        N  0.32568611  0.53079159  0.41085406    -0.06630
N229        N  0.32574221  0.52475245  0.38058506    -0.61200
N230        N  0.35454110  0.52835409  0.42231813    -0.06230
N231        N  0.37367782  0.51460782  0.40129356    -0.59050
N232        N  0.32876783  0.46915820  0.45660817    -0.05910
N233        N  0.32229391  0.44021406  0.46344640    -0.61550
C234        C  0.34463435  0.43070918  0.48408910     0.95220
C235        C  0.35465419  0.51215355  0.37555147     0.95000
N236        N  0.23239124  0.53641244  0.42397434    -0.07140
N237        N  0.21342780  0.54779405  0.40026229    -0.59650
N238        N  0.25947078  0.46760417  0.45215581    -0.05260
N239        N  0.26147794  0.43702852  0.44743754    -0.60900
N240        N  0.23858581  0.47557009  0.47422510    -0.07170
N241        N  0.22686044  0.44848030  0.48606457    -0.59920
N242        N  0.25849698  0.52504384  0.41068165    -0.04900
N243        N  0.25891946  0.52822087  0.37991419    -0.60990
Mn244      Mn  0.29375198  0.49843987  0.43251934     1.18440
C245        C  0.23133057  0.54250970  0.37281497     0.97300
C246        C  0.24164652  0.42443872  0.46841883     0.97970
N247        N  0.35668830  0.57744261  0.47306861    -0.07190
N248        N  0.37159339  0.59545925  0.45267160    -0.63500
N249        N  0.33796555  0.54038522  0.54169935    -0.05990
N250        N  0.33736460  0.52819464  0.57069588    -0.64170
N251        N  0.35936503  0.52524135  0.52432228    -0.06700
N252        N  0.37366167  0.50248479  0.54093130    -0.63760
N253        N  0.33498168  0.59375921  0.48908934    -0.05590
N254        N  0.33497471  0.62364427  0.47990470    -0.64450
Mn255      Mn  0.35820935  0.52718457  0.47347429     1.10660
C256        C  0.35795222  0.62437823  0.45701009     0.98530
C257        C  0.35956377  0.50441482  0.56968824     0.98600
N258        N  0.24268683  0.52785201  0.53564404    -0.06700
N259        N  0.22969251  0.51236851  0.56048328    -0.62080
N260        N  0.26273297  0.59696658  0.49866206    -0.06020
N261        N  0.26576954  0.62733818  0.49445837    -0.58810
N262        N  0.23896055  0.58607770  0.48205922    -0.07330
N263        N  0.22590336  0.61030529  0.46506912    -0.61640
N264        N  0.26671790  0.54374874  0.54663190    -0.06320
N265        N  0.27076162  0.53941932  0.57715972    -0.58830
Mn266      Mn  0.23474017  0.53138931  0.48005065     1.20190
Mn267      Mn  0.30046453  0.56979069  0.52003647     1.10090
Cl268      Cl  0.29609600  0.53138889  0.47733375    -0.86800
C269        C  0.24802346  0.52014367  0.58634687     0.95530
C270        C  0.24322066  0.63584816  0.47359843     0.95330
N271        N  0.84153272  0.50293998  0.95375793    -0.06950
N272        N  0.84799341  0.51358820  0.92479398    -0.59070
N273        N  0.84622743  0.46743854  0.02646390    -0.06630
N274        N  0.85149518  0.45130433  0.05270542    -0.61200
N275        N  0.82651262  0.45296295  0.00794132    -0.06230
N276        N  0.81832679  0.42611722  0.02166750    -0.59050
N277        N  0.86208782  0.51325697  0.97405057    -0.05910
N278        N  0.88315235  0.53035747  0.95973020    -0.61550
C279        C  0.87446213  0.53044566  0.92915248     0.95220
C280        C  0.83381861  0.42573785  0.04993245     0.95000
N281        N  0.81954792  0.53982524  0.08341434    -0.07140
N282        N  0.81100711  0.53298015  0.11240618    -0.59650
N283        N  0.85229949  0.56722716  0.01849625    -0.05260
N284        N  0.87056560  0.58303154  0.99924876    -0.60900
N285        N  0.82879053  0.58555931  0.02891625    -0.07170
N286        N  0.83081828  0.61441063  0.01740019    -0.59920
N287        N  0.84184590  0.51996987  0.07341762    -0.04900
N288        N  0.84870473  0.49863338  0.09567647    -0.60990
Mn289      Mn  0.85226550  0.51670764  0.02348788     1.18440
C290        C  0.82870243  0.50719228  0.11942375     0.97300
C291        C  0.85686640  0.61236236  0.99859452     0.97970
N292        N  0.75832727  0.45819012  0.98864519    -0.07190
N293        N  0.75777268  0.42739553  0.98857317    -0.63500
N294        N  0.74534625  0.52821741  0.94986078    -0.05990
N295        N  0.73606053  0.54656381  0.92491315    -0.64170
N296        N  0.76946903  0.50960329  0.94048386    -0.06700
N297        N  0.77639877  0.51415448  0.91040292    -0.63760
N298        N  0.73359618  0.47132467  0.00331979    -0.05590
N299        N  0.71545950  0.44780464  0.01420507    -0.64450
Mn300      Mn  0.79909208  0.48042070  0.97169240     1.10660
C301        C  0.73142058  0.42036202  0.00438218     0.98530
C302        C  0.75581474  0.53703219  0.90017809     0.98600
N303        N  0.75844308  0.59250825  0.02467921    -0.06700
N304        N  0.76130305  0.62288020  0.02418581    -0.62080
N305        N  0.73069715  0.52524728  0.06145102    -0.06020
N306        N  0.71927373  0.50623676  0.08467686    -0.58810
N307        N  0.74892316  0.54559419  0.07536777    -0.07330
N308        N  0.74881246  0.54248774  0.10633025    -0.61640
N309        N  0.73711962  0.58278895  0.00476439    -0.06320
N310        N  0.72539254  0.60873842  0.98898962    -0.58830
Mn311      Mn  0.78888946  0.56631195  0.05310066     1.20190
Mn312      Mn  0.73330360  0.52692830  0.00461290     1.10090
Cl313      Cl  0.79289385  0.52254036  0.01299776    -0.86800
C314        C  0.74104589  0.63374213  0.00231609     0.95530
C315        C  0.73088133  0.51803594  0.11291842     0.95330
N316        N  0.97908899  0.58044794  0.83205645    -0.06950
N317        N  0.96385995  0.60280804  0.84816924    -0.59070
N318        N  0.99880164  0.50259549  0.82635838    -0.06630
N319        N  0.00303797  0.47201207  0.83038586    -0.61200
N320        N  0.01943319  0.51793014  0.84287698    -0.06230
N321        N  0.03843496  0.49780116  0.85856168    -0.59050
N322        N  0.95877243  0.56383906  0.81647343    -0.05910
N323        N  0.92939410  0.57437173  0.82165510    -0.61550
C324        C  0.93249889  0.59844484  0.84205050     0.95220
C325        C  0.02793408  0.46934999  0.85032654     0.95000
N326        N  0.00575511  0.48953537  0.73064463    -0.07140
N327        N  0.01423617  0.46111731  0.71902905    -0.59650
N328        N  0.94919706  0.54582483  0.75020100    -0.05260
N329        N  0.91943040  0.55499708  0.75378649    -0.60900
N330        N  0.96072847  0.55315643  0.72213985    -0.07170
N331        N  0.93706038  0.56743677  0.70526248    -0.59920
N332        N  0.98934983  0.48543255  0.75708930    -0.04900
N333        N  0.98575388  0.45525988  0.76357628    -0.60990
Mn334      Mn  0.97362997  0.52400024  0.78771792     1.18440
C335        C  0.00124323  0.43994127  0.74002500     0.96820
C336        C  0.91165203  0.56872171  0.72625099     0.97970
N337        N  0.07928073  0.55139876  0.82519605    -0.07190
N338        N  0.09438664  0.52674508  0.83855486    -0.63500
N339        N  0.05809921  0.62140485  0.79325230    -0.05990
N340        N  0.07809388  0.64409236  0.79835688    -0.64170
N341        N  0.04190235  0.61514010  0.81930790    -0.06700
N342        N  0.05011735  0.63422525  0.84201008    -0.63760
N343        N  0.09448379  0.56009726  0.79941840    -0.05590
N344        N  0.12011496  0.54233362  0.79501385    -0.64450
Mn345      Mn  0.02959409  0.56674056  0.83128991     1.10660
C346        C  0.11968566  0.52166405  0.81907366     0.98530
C347        C  0.07300041  0.65172654  0.82884631     0.98600
N348        N  0.02277370  0.59560927  0.70911978    -0.06700
N349        N  0.00351963  0.62048776  0.70085586    -0.62080
N350        N  0.08783513  0.54862600  0.73047304    -0.06020
N351        N  0.11802062  0.54014323  0.73138263    -0.58810
N352        N  0.07067120  0.52880067  0.71478540    -0.07330
N353        N  0.09077011  0.50498076  0.70516229    -0.61640
N354        N  0.04805797  0.60688297  0.72280807    -0.06320
N355        N  0.04778872  0.63764190  0.72245943    -0.58830
Mn356      Mn  0.01497108  0.54128661  0.71587673     1.20190
Mn357      Mn  0.07168397  0.58443319  0.76088857     1.10090
Cl358      Cl  0.02236966  0.55400471  0.77365379    -0.86800
C359        C  0.02047931  0.64660360  0.70870351     0.95530
C360        C  0.12054650  0.51283278  0.71640613     0.95330
N361        N  0.28484928  0.51266386  0.92666159    -0.06950
N362        N  0.29979811  0.49125019  0.90753340    -0.59070
N363        N  0.26643965  0.58990829  0.94790886    -0.06630
N364        N  0.26691596  0.62078539  0.94789104    -0.61200
N365        N  0.28289504  0.57731747  0.97194090    -0.06230
N366        N  0.29368867  0.60083875  0.98963404    -0.59050
N367        N  0.26813121  0.53217778  0.90829059    -0.05910
N368        N  0.27131651  0.52583821  0.87826048    -0.61550
C369        C  0.29027879  0.50017661  0.87699713     0.95220
C370        C  0.28362080  0.62794998  0.97371074     0.95000
N371        N  0.16906624  0.59147252  0.94648712    -0.07140
N372        N  0.15892457  0.61532833  0.96425581    -0.59650
N373        N  0.19906646  0.53391074  0.89801049    -0.05260
N374        N  0.20979003  0.51284998  0.87762848    -0.60900
N375        N  0.17301375  0.52402930  0.91183431    -0.07170
N376        N  0.16581620  0.49601063  0.90058431    -0.59920
N377        N  0.19521157  0.59929851  0.93158658    -0.04900
N378        N  0.20225823  0.62861553  0.93780241    -0.60990
Mn379      Mn  0.23204921  0.56468687  0.92077700     1.18440
C380        C  0.17957438  0.63840111  0.95823130     0.97300
C381        C  0.18950333  0.48908915  0.87946644     0.97970
N382        N  0.26989902  0.53447481  0.03456921    -0.07190
N383        N  0.28768796  0.53945261  0.06036432    -0.63500
N384        N  0.23880635  0.46951184  0.00913157    -0.05990
N385        N  0.23091961  0.43959648  0.00983155    -0.64170
N386        N  0.26449255  0.47299489  0.99132966    -0.06700
N387        N  0.27370724  0.44504933  0.97907677    -0.63760
N388        N  0.23995163  0.53489155  0.04353854    -0.05590
N389        N  0.23620073  0.54151727  0.07347801    -0.64450
Mn390      Mn  0.27861848  0.52351222  0.98132090     1.10660
C391        C  0.26561320  0.54428379  0.08440419     0.98530
C392        C  0.25239445  0.42417455  0.99115041     0.98600
N393        N  0.15335222  0.49288931  0.97483537    -0.06700
N394        N  0.14044937  0.46763246  0.96244221    -0.62080
N395        N  0.17002441  0.54795078  0.03045826    -0.06020
N396        N  0.16242091  0.56206923  0.05730193    -0.58810
N397        N  0.15183665  0.55890694  0.00724451    -0.07330
N398        N  0.13175448  0.58120325  0.01764308    -0.61640
N399        N  0.16860258  0.48458800  0.00077091    -0.06320
N400        N  0.16585619  0.45490838  0.00741980    -0.58830
Mn401      Mn  0.15976858  0.54202198  0.95870605     1.20190
Mn402      Mn  0.20476017  0.50950250  0.02167984     1.10090
Cl403      Cl  0.21903482  0.53489125  0.97070293    -0.86800
C404        C  0.14855762  0.44419479  0.98387192     0.95530
C405        C  0.13888417  0.58329735  0.04891394     0.95330
N406        N  0.91728547  0.50794666  0.18342284    -0.06950
N407        N  0.90243389  0.48165760  0.17760583    -0.59070
N408        N  0.93411137  0.58439942  0.19371588    -0.06630
N409        N  0.93256249  0.61547190  0.19370315    -0.61200
N410        N  0.94466807  0.57378355  0.16642044    -0.06230
N411        N  0.95123650  0.59777357  0.14747290    -0.59050
N412        N  0.90876599  0.51872095  0.21146086    -0.05910
N413        N  0.88967244  0.49925356  0.22559611    -0.61550
C414        C  0.88460556  0.47675884  0.20414197     0.95220
C415        C  0.94309394  0.62369650  0.16471420     0.95000
N416        N  0.98688566  0.57627641  0.27498736    -0.07140
N417        N  0.00404951  0.60238427  0.27859958    -0.59650
N418        N  0.92509900  0.53320414  0.27943502    -0.05260
N419        N  0.89514771  0.52939743  0.28559231    -0.60900
N420        N  0.94324600  0.50877502  0.28724757    -0.07170
N421        N  0.92346348  0.48558915  0.29641988    -0.59920
N422        N  0.95969189  0.58568465  0.26180055    -0.04900
N423        N  0.95684509  0.61614428  0.25801002    -0.60990
Mn424      Mn  0.93158674  0.55586922  0.23608715     1.18440
C425        C  0.98418916  0.62732279  0.26804436     0.97300
C426        C  0.89282302  0.49970759  0.29545899     0.97970
N427        N  0.00813743  0.54119551  0.14748533    -0.07190
N428        N  0.01516579  0.56486996  0.12820746    -0.63500
N429        N  0.00537085  0.46707476  0.17171996    -0.05990
N430        N  0.01040374  0.43658791  0.17230356    -0.64170
N431        N  0.97804094  0.47491204  0.15848533    -0.06700
N432        N  0.96343158  0.44900029  0.15015308    -0.63760
N433        N  0.03360934  0.53141117  0.16348055    -0.05590
N434        N  0.05835662  0.54788839  0.15536797    -0.64450
Mn435      Mn  0.96097102  0.52444661  0.16166538     1.10660
C436        C  0.04662550  0.56877611  0.13345005     0.98530
C437        C  0.98445073  0.42531293  0.15922400     0.98600
N438        N  0.00846449  0.46716491  0.26592398    -0.06700
N439        N  0.99812861  0.43987636  0.27811502    -0.62080
N440        N  0.05814965  0.52401263  0.23166899    -0.06020
N441        N  0.08804105  0.52968976  0.22557695    -0.58810
N442        N  0.04996549  0.53053039  0.26109499    -0.07330
N443        N  0.07578516  0.54079563  0.27597961    -0.61640
N444        N  0.02524897  0.46093815  0.23999563    -0.06320
N445        N  0.02772349  0.43026654  0.23511603    -0.58830
Mn446      Mn  0.99759980  0.52018056  0.27548835     1.20190
Mn447      Mn  0.03133404  0.49619197  0.20148964     1.10090
Cl448      Cl  0.98092318  0.52453859  0.21883593    -0.86800
C449        C  0.01086915  0.41680342  0.25849925     0.95530
C450        C  0.09916707  0.54053369  0.25282650     0.95330
N451        N  0.94486322  0.24946472  0.99390335    -0.06950
N452        N  0.91928724  0.23565170  0.00635563    -0.59070
N453        N  0.98473533  0.27506347  0.92880743    -0.06630
N454        N  0.98613381  0.28012142  0.89813085    -0.61200
N455        N  0.99834484  0.24782495  0.93741304    -0.06230
N456        N  0.00994489  0.23370265  0.91118322    -0.59050
N457        N  0.93526249  0.27658762  0.98074482    -0.05910
N458        N  0.90432246  0.28177775  0.98358094    -0.61550
C459        C  0.89414980  0.25648183  0.99948540     0.95220
C460        C  0.00167722  0.25461905  0.88694604     0.95000
N461        N  0.01820976  0.35850943  0.95889051    -0.07140
N462        N  0.04045570  0.37250270  0.94266141    -0.59650
N463        N  0.94845381  0.34516734  0.99177714    -0.05260
N464        N  0.91868384  0.34841609  0.00117100    -0.60900
N465        N  0.96726298  0.36039619  0.01045976    -0.07170
N466        N  0.95075391  0.37447943  0.03305647    -0.59920
N467        N  0.00009483  0.34277534  0.93993527    -0.04900
N468        N  0.00963913  0.34588283  0.91016176    -0.60990
Mn469      Mn  0.96660558  0.31004690  0.95979070     1.18440
C470        C  0.03530882  0.36413161  0.91239997     0.97300
C471        C  0.92061140  0.36671423  0.02691998     0.97970
N472        N  0.05620822  0.23244241  0.98765327    -0.07190
N473        N  0.07793099  0.22718461  0.96428252    -0.63500
N474        N  0.02582930  0.24380240  0.06211698    -0.05990
N475        N  0.02478204  0.24297645  0.09306644    -0.64170
N476        N  0.00018889  0.23309117  0.04884186    -0.06700
N477        N  0.97958072  0.22688636  0.07280808    -0.63760
N478        N  0.07180170  0.24284774  0.01213412    -0.05590
N479        N  0.10250400  0.24251812  0.00776326    -0.64450
Mn480      Mn  0.99955590  0.23748990  0.99182050     1.10660
C481        C  0.10705379  0.23331784  0.97803071     0.98530
C482        C  0.99617369  0.23285036  0.10055988     0.98600
N483        N  0.01627197  0.33922353  0.05987930    -0.06700
N484        N  0.99393683  0.34924555  0.07988836    -0.62080
N485        N  0.08103534  0.31267311  0.01624236    -0.06020
N486        N  0.10935747  0.30766601  0.00302674    -0.58810
N487        N  0.06774647  0.33914246  0.00553230    -0.07330
N488        N  0.08634597  0.35224858  0.98449926    -0.61640
N489        N  0.03066644  0.31339014  0.07115638    -0.06320
N490        N  0.01885580  0.30584871  0.09911824    -0.58830
Mn491      Mn  0.01781235  0.35115051  0.00955113     1.20190
Mn492      Mn  0.05294552  0.27837103  0.04077536     1.10090
Cl493      Cl  0.00883796  0.29389235  0.00040974    -0.86800
C494        C  0.99536062  0.32758612  0.10370899     0.95530
C495        C  0.11190908  0.33227797  0.98256042     0.95330
N496        N  0.00429915  0.68898921  0.01621437    -0.06950
N497        N  0.98437097  0.67167840  0.03275182    -0.59070
N498        N  0.04877784  0.70794837  0.95330347    -0.06630
N499        N  0.06383544  0.70809056  0.92602153    -0.61200
N500        N  0.06614063  0.69301256  0.97515257    -0.06230
N501        N  0.09366673  0.68258647  0.96291032    -0.59050
N502        N  0.98869429  0.70587616  0.99483285    -0.05910
N503        N  0.95820537  0.70190500  0.99684009    -0.61550
C504        C  0.95563149  0.68071466  0.02029790     0.95220
C505        C  0.09175767  0.69271278  0.93228774     0.95000
N506        N  0.02764937  0.80280688  0.93980320    -0.07140
N507        N  0.02839621  0.82079369  0.91321862    -0.59650
N508        N  0.96653639  0.76971337  0.97441438    -0.05260
N509        N  0.93650072  0.76236273  0.97132424    -0.60900
N510        N  0.96910945  0.79704257  0.98844881    -0.07170
N511        N  0.93970356  0.80869876  0.99548076    -0.59920
N512        N  0.02498567  0.77331042  0.93122970    -0.04900
N513        N  0.02430803  0.77026841  0.90015873    -0.60990
Mn514      Mn  0.00754511  0.73852991  0.96314745     1.18440
C515        C  0.02696124  0.79963091  0.88855518     0.97300
C516        C  0.91941458  0.78640400  0.98442520     0.97970
N517        N  0.10102780  0.71125109  0.03643637    -0.07190
N518        N  0.12677431  0.69305495  0.03377219    -0.63500
N519        N  0.04575469  0.73856688  0.08525915    -0.05990
N520        N  0.03366416  0.73923537  0.11423925    -0.64170
N521        N  0.04126221  0.71068854  0.07282334    -0.06700
N522        N  0.02643672  0.69211463  0.09258375    -0.63760
N523        N  0.10793067  0.73904025  0.04716753    -0.05590
N524        N  0.13908321  0.74079858  0.05100998    -0.64450
Mn525      Mn  0.05348766  0.69924330  0.02506862     1.10660
C526        C  0.15037467  0.71159336  0.04312038     0.98530
C527        C  0.02209939  0.71010959  0.11828213     0.98600
N528        N  0.01276618  0.81579451  0.05021071    -0.06700
N529        N  0.98906560  0.81452096  0.07202791    -0.62080
N530        N  0.09074723  0.80741412  0.02670531    -0.06020
N531        N  0.12159736  0.80758081  0.02670100    -0.58810
N532        N  0.07786070  0.81785694  0.99984243    -0.07330
N533        N  0.10241876  0.82365514  0.97994838    -0.61640
N534        N  0.03949750  0.81468301  0.06590534    -0.06320
N535        N  0.03531585  0.81887315  0.09612172    -0.58830
Mn536      Mn  0.02137762  0.81152741  0.99459258     1.20190
Mn537      Mn  0.07065129  0.77511281  0.05682572     1.10090
Cl538      Cl  0.03842642  0.75648199  0.00959626    -0.86800
C539        C  0.00428127  0.81647644  0.10122504     0.95530
C540        C  0.12967416  0.81774066  0.99807788     0.95330
N541        N  0.57591556  0.74334461  0.99112061    -0.06950
N542        N  0.60280216  0.72817619  0.98135983    -0.59070
N543        N  0.54766973  0.76764593  0.05902222    -0.06630
N544        N  0.55058573  0.77326425  0.08941666    -0.61200
N545        N  0.53198583  0.74176234  0.05418115    -0.06230
N546        N  0.52318171  0.72972807  0.08237706    -0.59050
N547        N  0.58256298  0.77282759  0.99620876    -0.05910
N548        N  0.61221974  0.77886669  0.98983219    -0.61550
C549        C  0.62501284  0.75142102  0.98015080     0.95220
C550        C  0.53542343  0.74995083  0.10416631     0.95000
N551        N  0.49832784  0.84695688  0.04133701    -0.07140
N552        N  0.48050182  0.85570740  0.06589200    -0.59650
N553        N  0.55686709  0.83841857  0.98560611    -0.05260
N554        N  0.58108286  0.84192883  0.96616306    -0.60900
N555        N  0.53106432  0.85299707  0.97453657    -0.07170
N556        N  0.53725802  0.86696277  0.94719735    -0.59920
N557        N  0.52567759  0.83493763  0.05119044    -0.04900
N558        N  0.52761479  0.83552775  0.08222998    -0.60990
Mn559      Mn  0.55386893  0.80376676  0.02281345     1.18440
C560        C  0.49948782  0.84844773  0.09118608     0.97300
C561        C  0.56848558  0.85960559  0.94210054     0.97970
N562        N  0.46769647  0.72255455  0.01268309    -0.07190
N563        N  0.44300210  0.72901500  0.03284671    -0.63500
N564        N  0.48862827  0.73745871  0.93387861    -0.05990
N565        N  0.48886162  0.74302195  0.90324504    -0.64170
N566        N  0.51717288  0.72988192  0.94505992    -0.06700
N567        N  0.53794997  0.73262223  0.92062238    -0.63760
N568        N  0.45483539  0.71661986  0.98566036    -0.05590
N569        N  0.42497871  0.70942520  0.98842540    -0.64450
Mn570      Mn  0.52326173  0.73089761  0.00160780     1.10660
C571        C  0.41567171  0.72019801  0.01668355     0.98530
C572        C  0.51943578  0.74056093  0.89428982     0.98600
N573        N  0.47124236  0.83129610  0.94379658    -0.06700
N574        N  0.47683037  0.85000584  0.91949241    -0.62080
N575        N  0.42940575  0.79403606  0.99841235    -0.06020
N576        N  0.40015111  0.79229135  0.00960599    -0.58810
N577        N  0.44132405  0.82035748  0.00886111    -0.07330
N578        N  0.42157793  0.83523553  0.02824228    -0.61640
N579        N  0.46055749  0.80440921  0.93396513    -0.06320
N580        N  0.45814098  0.80428660  0.90280950    -0.58830
Mn581      Mn  0.48463183  0.83980011  0.99218288     1.20190
Mn582      Mn  0.45699677  0.76326677  0.96340414     1.10090
Cl583      Cl  0.50510823  0.78458939  0.99459259    -0.86800
C584        C  0.46919768  0.83244696  0.89442158     0.95530
C585        C  0.39576041  0.81746890  0.02893662     0.95330
N586        N  0.45212510  0.96986238  0.78669159    -0.06950
N587        N  0.44886899  0.93922320  0.78733104    -0.59070
N588        N  0.42831242  0.04422174  0.79628597    -0.06630
N589        N  0.41021538  0.06870174  0.80439935    -0.61200
N590        N  0.41952564  0.03292070  0.76883966    -0.06230
N591        N  0.39384661  0.04890291  0.75907346    -0.59050
N592        N  0.46048468  0.98028386  0.81442650    -0.05910
N593        N  0.46369920  0.95667876  0.83495420    -0.61550
C594        C  0.45600351  0.93160363  0.81740395     0.95220
C595        C  0.38806256  0.07137938  0.78142685     0.95000
N596        N  0.50546156  0.09028950  0.81377669    -0.07140
N597        N  0.50410032  0.12122735  0.81415346    -0.59650
N598        N  0.51711410  0.01566523  0.83811877    -0.05260
N599        N  0.52610980  0.99483970  0.86011914    -0.60900
N600        N  0.54188588  0.02744342  0.82386703    -0.07170
N601        N  0.56825753  0.01464674  0.83513175    -0.59920
N602        N  0.48005938  0.07864469  0.82662945    -0.04900
N603        N  0.46039257  0.10164706  0.83608058    -0.60990
Mn604      Mn  0.47060948  0.02927697  0.82082577     1.18440
C605        C  0.47588332  0.12803156  0.82788663     0.97300
C606        C  0.55832104  0.99450215  0.85786678     0.97970
N607        N  0.44761654  0.01771818  0.69813979    -0.07190
N608        N  0.41761832  0.02007514  0.69025514    -0.63500
N609        N  0.51390073  0.97966997  0.71386624    -0.05990
N610        N  0.53592642  0.95552136  0.71352078    -0.64170
N611        N  0.48709749  0.96803619  0.72459359    -0.06700
N612        N  0.48980534  0.93772926  0.73101774    -0.63760
N613        N  0.46089349  0.04488946  0.69818615    -0.05590
N614        N  0.43675415  0.06723771  0.69661618    -0.64450
Mn615      Mn  0.45063057  0.99706435  0.74438491     1.10660
C616        C  0.40912783  0.05068259  0.69105291     0.98530
C617        C  0.51988051  0.92920813  0.72385128     0.98600
N618        N  0.57265073  0.03716944  0.76046101    -0.06700
N619        N  0.60261023  0.03727639  0.76899748    -0.62080
N620        N  0.51987067  0.08917082  0.72054062    -0.06020
N621        N  0.51024547  0.11563876  0.70518344    -0.58810
N622        N  0.53196878  0.09658723  0.74819337    -0.07330
N623        N  0.53157420  0.12728777  0.75205481    -0.61640
N624        N  0.56905540  0.03131820  0.73015392    -0.06320
N625        N  0.59832239  0.02806182  0.71716238    -0.58830
Mn626      Mn  0.53847418  0.06272067  0.78692803     1.20190
Mn627      Mn  0.51627716  0.03642338  0.71212786     1.10090
Cl628      Cl  0.49454001  0.03118335  0.76594825    -0.86800
C629        C  0.61888896  0.03135772  0.74241880     0.95530
C630        C  0.51832953  0.13920331  0.72536806     0.95330
N631        N  0.46694163  0.20053042  0.94978076    -0.06950
N632        N  0.44568559  0.19848926  0.92687359    -0.59070
N633        N  0.52773419  0.19986366  0.00333121    -0.06630
N634        N  0.55179499  0.19549735  0.02296039    -0.61200
N635        N  0.50224485  0.18641070  0.01464032    -0.06230
N636        N  0.50865119  0.17253868  0.04230497    -0.59050
N637        N  0.49318707  0.21224275  0.93861213    -0.05910
N638        N  0.49031698  0.21844904  0.90807324    -0.61550
C639        C  0.46046346  0.21043061  0.90111980     0.95220
C640        C  0.53955498  0.17869705  0.04721940     0.95000
N641        N  0.54747702  0.29487705  0.00318718    -0.07140
N642        N  0.57380228  0.30873880  0.01301085    -0.59650
N643        N  0.51987457  0.27598409  0.93439322    -0.05260
N644        N  0.52497100  0.27244902  0.90389413    -0.60900
N645        N  0.50510606  0.30317508  0.94054607    -0.07170
N646        N  0.49915486  0.31848467  0.91300365    -0.59920
N647        N  0.55515534  0.26552657  0.99558595    -0.04900
N648        N  0.58561353  0.25873290  0.99968318    -0.60990
Mn649      Mn  0.52474121  0.23751201  0.96810425     1.18440
C650        C  0.59732127  0.28535677  0.01094093     0.97300
C651        C  0.51239165  0.29875292  0.89036362     0.97970
N652        N  0.44208238  0.20890552  0.04900545    -0.07190
N653        N  0.44336762  0.18627918  0.07059302    -0.63500
N654        N  0.40041308  0.25383795  0.99953675    -0.05990
N655        N  0.37118108  0.26006790  0.98951057    -0.64170
N656        N  0.41214906  0.22850686  0.98549329    -0.06700
N657        N  0.39229324  0.21841012  0.96445417    -0.63760
N658        N  0.43403281  0.23602309  0.06196696    -0.05590
N659        N  0.42996613  0.23260035  0.09298072    -0.64450
Mn660      Mn  0.45543118  0.20427511  0.99960410     1.10660
C661        C  0.43535193  0.20126864  0.09766299     0.98530
C662        C  0.36595075  0.23718659  0.96796365     0.98600
N663        N  0.44023726  0.32332345  0.98245438    -0.06700
N664        N  0.41955346  0.32323075  0.95770136    -0.62080
N665        N  0.46163959  0.30202901  0.06135351    -0.06020
N666        N  0.46255020  0.29759316  0.09209647    -0.58810
N667        N  0.48853755  0.31236787  0.04962554    -0.07330
N668        N  0.50921082  0.31377075  0.07394781    -0.61640
N669        N  0.42318500  0.32276345  0.00845592    -0.06320
N670        N  0.39288760  0.32789716  0.00278312    -0.58830
Mn671      Mn  0.49532627  0.31183661  0.99356462     1.20190
Mn672      Mn  0.42932793  0.27889571  0.03340613     1.10090
Cl673      Cl  0.47684129  0.25824663  0.99905586    -0.86800
C674        C  0.38931698  0.32671275  0.97132288     0.95530
C675        C  0.49194686  0.30495065  0.10043745     0.95330
N676        N  0.46522523  0.95042876  0.19240189    -0.06950
N677        N  0.47039072  0.92588671  0.17422675    -0.59070
N678        N  0.41432465  0.00242097  0.22253298    -0.06630
N679        N  0.38389647  0.01148376  0.22359438    -0.61200
N680        N  0.42755571  0.01278419  0.19621353    -0.06230
N681        N  0.40720813  0.03040646  0.18003862    -0.59050
N682        N  0.45424121  0.94160042  0.22027625    -0.05910
N683        N  0.45143990  0.91070521  0.22170029    -0.61550
C684        C  0.46164729  0.90157076  0.19280549     0.95220
C685        C  0.37985319  0.02940067  0.19693222     0.95000
N686        N  0.44593774  0.03134583  0.29287790    -0.07140
N687        N  0.42335422  0.05467316  0.28721152    -0.59650
N688        N  0.47233076  0.95233816  0.29079655    -0.05260
N689        N  0.47370334  0.92160478  0.28940509    -0.60900
N690        N  0.50045678  0.96425990  0.29484121    -0.07170
N691        N  0.52219145  0.93994689  0.29250330    -0.59920
N692        N  0.43065084  0.00512426  0.29492913    -0.04900
N693        N  0.39971901  0.00974301  0.29594078    -0.60990
Mn694      Mn  0.44267193  0.97512376  0.25713312     1.18440
C695        C  0.39391415  0.04026447  0.28971415     0.97300
C696        C  0.50456893  0.91307038  0.28941139     0.97970
N697        N  0.48303969  0.04840331  0.16771314    -0.07190
N698        N  0.46277663  0.07033018  0.15628882    -0.63500
N699        N  0.54711831  0.99928027  0.18262392    -0.05990
N700        N  0.57469780  0.98391055  0.18002461    -0.64170
N701        N  0.52442735  0.98400140  0.16885719    -0.06700
N702        N  0.53637704  0.95748658  0.15636847    -0.63760
N703        N  0.50782778  0.06176284  0.17965597    -0.05590
N704        N  0.50543980  0.09264288  0.17655575    -0.64450
Mn705      Mn  0.47452040  0.99866016  0.17942222     1.10660
C706        C  0.47719543  0.09776059  0.16226329     0.98530
C707        C  0.56782684  0.95774707  0.16399690     0.98600
N708        N  0.55780976  0.01081013  0.27826300    -0.06700
N709        N  0.58398329  0.00176308  0.29487760    -0.62080
N710        N  0.52589138  0.07621344  0.24610639    -0.06020
N711        N  0.52935820  0.10614958  0.23884958    -0.58810
N712        N  0.51058952  0.07257090  0.27322389    -0.07330
N713        N  0.50296507  0.10126532  0.28475945    -0.61640
N714        N  0.56654265  0.01586587  0.24868832    -0.06320
N715        N  0.59709373  0.01041973  0.24413375    -0.58830
Mn716      Mn  0.50348681  0.02050029  0.28838251     1.20190
Mn717      Mn  0.53726077  0.03814630  0.21395163     1.10090
Cl718      Cl  0.48996273  0.00808944  0.23485915    -0.86800
C719        C  0.60832162  0.00169942  0.27264790     0.95530
C720        C  0.51538670  0.12195039  0.26281888     0.95330
N721        N  0.33647033  0.02267601  0.04921190    -0.06950
N722        N  0.33469640  0.01310854  0.07841591    -0.59070
N723        N  0.36091115  0.07518477  0.99142863    -0.06630
N724        N  0.37327793  0.10035300  0.97760751    -0.61200
N725        N  0.33881884  0.08409334  0.01171984    -0.06230
N726        N  0.33643636  0.11456421  0.01372572    -0.59050
N727        N  0.36483888  0.01760781  0.03724997    -0.05910
N728        N  0.38439265  0.00678370  0.06006680    -0.61550
C729        C  0.36436544  0.00420576  0.08572757     0.95220
C730        C  0.35772279  0.12462571  0.99288553     0.95000
N731        N  0.33627062  0.01628321  0.91995378    -0.07140
N732        N  0.33150595  0.02572531  0.89094593    -0.59650
N733        N  0.36416860  0.97262252  0.98087394    -0.05260
N734        N  0.37703700  0.94966699  0.99906732    -0.60900
N735        N  0.34160233  0.96120623  0.96344698    -0.07170
N736        N  0.33967814  0.93094024  0.96777976    -0.59920
N737        N  0.35978672  0.03097162  0.93304980    -0.04900
N738        N  0.37183026  0.05119637  0.91209207    -0.60990
Mn739      Mn  0.36535878  0.02431101  0.98505687     1.18440
C740        C  0.35353467  0.04684651  0.88590665     0.97300
C741        C  0.36148623  0.92370691  0.98973851     0.97970
N742        N  0.26736067  0.08916929  0.01090149    -0.07190
N743        N  0.27120426  0.11971615  0.00979049    -0.63500
N744        N  0.24097012  0.02551489  0.04574729    -0.05990
N745        N  0.22213707  0.02493783  0.07208280    -0.64170
N746        N  0.26984982  0.02984420  0.05571436    -0.06700
N747        N  0.27216045  0.03032185  0.08659823    -0.63760
N748        N  0.24434177  0.08111021  0.99182297    -0.05590
N749        N  0.23251840  0.10735402  0.97688821    -0.64450
Mn750      Mn  0.30305524  0.05626410  0.03172169     1.10660
C751        C  0.24967799  0.13165356  0.98908295     0.98530
C752        C  0.24292379  0.02786894  0.09768848     0.98600
N753        N  0.26958946  0.96028189  0.96789361    -0.06700
N754        N  0.27430953  0.92967635  0.97017095    -0.62080
N755        N  0.24263202  0.03032643  0.93252002    -0.06020
N756        N  0.22813266  0.04675659  0.90839814    -0.58810
N757        N  0.26595854  0.01307925  0.91992085    -0.07330
N758        N  0.26760622  0.01634132  0.88913096    -0.61640
N759        N  0.24658666  0.97092932  0.98692377    -0.06320
N760        N  0.23569526  0.94577292  0.00320123    -0.58830
Mn761      Mn  0.30317951  0.98743761  0.94256163     1.20190
Mn762      Mn  0.24012033  0.02692092  0.98888424     1.10090
Cl763      Cl  0.30255066  0.02410245  0.98653806    -0.86800
C764        C  0.25370434  0.92009409  0.99197628     0.95530
C765        C  0.24468170  0.03732442  0.88120072     0.95330
N766        N  0.77910064  0.97333396  0.99728101    -0.06950
N767        N  0.79210517  0.94574122  0.00759133    -0.59070
N768        N  0.75526525  0.03298346  0.94516775    -0.06630
N769        N  0.75382207  0.04331787  0.91595216    -0.61200
N770        N  0.78045917  0.04174987  0.96053198    -0.06230
N771        N  0.79807387  0.05814131  0.93954430    -0.59050
N772        N  0.75778982  0.96763869  0.97529417    -0.05910
N773        N  0.75650397  0.93727635  0.96957300    -0.61550
C774        C  0.77791322  0.92351953  0.98940595     0.95220
C775        C  0.78000810  0.05915570  0.91186597     0.95000
N776        N  0.66382019  0.04866480  0.96295590    -0.07140
N777        N  0.63940861  0.06015152  0.94665667    -0.59650
N778        N  0.68546943  0.97027146  0.97017439    -0.05260
N779        N  0.67987723  0.94508085  0.95352956    -0.60900
N780        N  0.66018433  0.97992281  0.98611653    -0.07170
N781        N  0.63642116  0.96119473  0.98063638    -0.59920
N782        N  0.68590430  0.03731003  0.94368841    -0.04900
N783        N  0.67640308  0.04052012  0.91415099    -0.60990
Mn784      Mn  0.72167360  0.00187840  0.95887191     1.18440
C785        C  0.64632103  0.05282946  0.91616049     0.97300
C786        C  0.64944505  0.93936168  0.96062689     0.97970
N787        N  0.77286450  0.07550891  0.03117701    -0.07190
N788        N  0.78320787  0.10304100  0.02004684    -0.63500
N789        N  0.74939475  0.01424739  0.08093224    -0.05990
N790        N  0.74729339  0.00359891  0.10997673    -0.64170
N791        N  0.77712287  0.00767721  0.06760994    -0.06700
N792        N  0.79556946  0.99302704  0.08989428    -0.63760
N793        N  0.74972173  0.08116655  0.05202686    -0.05590
N794        N  0.74463502  0.11172801  0.05585190    -0.64450
Mn795      Mn  0.78077921  0.02466703  0.01433978     1.10660
C796        C  0.76545258  0.12552039  0.03617263     0.98530
C797        C  0.77564984  0.99036269  0.11612104     0.98600
N798        N  0.65834200  0.00340860  0.05446955    -0.06700
N799        N  0.64361130  0.97747052  0.06179741    -0.62080
N800        N  0.67727514  0.07969407  0.05261204    -0.06020
N801        N  0.66729530  0.10411911  0.06950930    -0.58810
N802        N  0.65601391  0.07221454  0.03161809    -0.07330
N803        N  0.63076452  0.09141184  0.03369103    -0.61640
N804        N  0.67915311  0.01006826  0.07635678    -0.06320
N805        N  0.67887985  0.98846331  0.09938465    -0.58830
Mn806      Mn  0.65868471  0.02645574  0.00878637     1.20190
Mn807      Mn  0.71436080  0.04659386  0.06608229     1.10090
Cl808      Cl  0.71918364  0.02494511  0.01209609    -0.86800
C809        C  0.65674031  0.96805949  0.08969077     0.95530
C810        C  0.63847423  0.11134891  0.05705305     0.95330
N811        N  0.94470176  0.80623152  0.50438407    -0.06950
N812        N  0.92285102  0.79470676  0.52280124    -0.59070
N813        N  0.98338086  0.85056578  0.44878386    -0.06630
N814        N  0.99253990  0.86698737  0.42360074    -0.61200
N815        N  0.96764698  0.82634187  0.43962598    -0.06230
N816        N  0.96410982  0.82626473  0.40898020    -0.59050
N817        N  0.95382195  0.83353717  0.51462890    -0.05910
N818        N  0.93649323  0.84183312  0.53949624    -0.61550
C819        C  0.91608101  0.81788091  0.54310055     0.95220
C820        C  0.97958539  0.85130039  0.39913606     0.95000
N821        N  0.07043572  0.84215758  0.48956672    -0.07140
N822        N  0.09582004  0.84675557  0.47194029    -0.59650
N823        N  0.01476610  0.85019502  0.54683013    -0.05260
N824        N  0.99849504  0.85947092  0.57200853    -0.60900
N825        N  0.03983970  0.83300434  0.55553796    -0.07170
N826        N  0.04194428  0.83075524  0.58670296    -0.59920
N827        N  0.04668369  0.86116992  0.48054851    -0.04900
N828        N  0.05547281  0.87920311  0.45644142    -0.60990
Mn829      Mn  0.99893163  0.85153862  0.49765701     1.18440
C830        C  0.08623334  0.86967893  0.45112139     0.97300
C831        C  0.01558484  0.84663895  0.59647346     0.97970
N832        N  0.98945432  0.75888586  0.43027468    -0.07190
N833        N  0.98541045  0.76318773  0.39989912    -0.63500
N834        N  0.96754233  0.72933280  0.50560153    -0.05990
N835        N  0.94417305  0.72359784  0.52731585    -0.64170
N836        N  0.95285700  0.73909934  0.48005643    -0.06700
N837        N  0.92199122  0.73707658  0.48147737    -0.63760
N838        N  0.01365266  0.73951457  0.43754300    -0.05590
N839        N  0.02769075  0.73113457  0.40979160    -0.64450
Mn840      Mn  0.96359173  0.78347696  0.46386663     1.10660
C841        C  0.00889302  0.74613537  0.38654789     0.98530
C842        C  0.91524722  0.72825320  0.51090380     0.98600
N843        N  0.05558930  0.76297818  0.55421452    -0.06700
N844        N  0.05715436  0.76831057  0.58474590    -0.62080
N845        N  0.07856759  0.74563391  0.48163351    -0.06020
N846        N  0.10460922  0.73241871  0.46706923    -0.58810
N847        N  0.08645649  0.77389611  0.49023280    -0.07330
N848        N  0.11488734  0.78118699  0.48130373    -0.61640
N849        N  0.03380204  0.74229652  0.54795143    -0.06320
N850        N  0.01832180  0.73571881  0.57529826    -0.58830
Mn851      Mn  0.06382599  0.80286198  0.52242226     1.20190
Mn852      Mn  0.02400265  0.73541000  0.49387337     1.10090
Cl853      Cl  0.01323782  0.79311972  0.49402113    -0.86800
C854        C  0.03373871  0.75232725  0.59839914     0.95530
C855        C  0.12716338  0.75581704  0.46719425     0.95330
N856        N  0.79908837  0.94441457  0.54558760    -0.06950
N857        N  0.79787252  0.91473899  0.55419046    -0.59070
N858        N  0.83844278  0.00540312  0.56979012    -0.06630
N859        N  0.85410896  0.02730790  0.58455105    -0.61200
N860        N  0.81327162  0.99809914  0.58670358    -0.06230
N861        N  0.81198565  0.01394937  0.61326764    -0.59050
N862        N  0.82400728  0.94961484  0.52750460    -0.05910
N863        N  0.84019274  0.92314831  0.52271460    -0.61550
C864        C  0.82313113  0.90209183  0.53922559     0.95220
C865        C  0.83725075  0.03213772  0.61156477     0.95000
N866        N  0.83537634  0.06493903  0.49524269    -0.07140
N867        N  0.84160145  0.09428286  0.50149952    -0.59650
N868        N  0.83846962  0.99077108  0.46632943    -0.05260
N869        N  0.84999237  0.96921122  0.44621062    -0.60900
N870        N  0.82157440  0.01236097  0.45062679    -0.07170
N871        N  0.82056221  0.00614517  0.42046895    -0.59920
N872        N  0.85364600  0.04519134  0.51180879    -0.04900
N873        N  0.87263042  0.06085892  0.53016299    -0.60990
Mn874      Mn  0.84057796  0.99657336  0.51858558     1.18440
C875        C  0.86474539  0.09134542  0.52343877     0.97300
C876        C  0.83803839  0.97947607  0.41753510     0.97970
N877        N  0.74379964  0.01566188  0.58588591    -0.07190
N878        N  0.74654395  0.02103356  0.61607030    -0.63500
N879        N  0.72257697  0.97304454  0.51919824    -0.05990
N880        N  0.72695030  0.94757568  0.50027665    -0.64170
N881        N  0.72744534  0.96303408  0.54843459    -0.06700
N882        N  0.72878678  0.93218636  0.55063698    -0.63760
N883        N  0.72733801  0.03763007  0.57026320    -0.05590
N884        N  0.71936411  0.06022699  0.59179556    -0.64450
Mn885      Mn  0.77089538  0.98026384  0.56636883     1.10660
C886        C  0.73181518  0.04872642  0.62061225     0.98530
C887        C  0.73042402  0.92175481  0.52091437     0.98600
N888        N  0.75501887  0.03527606  0.44490831    -0.06700
N889        N  0.75719865  0.03122783  0.41415212    -0.62080
N890        N  0.73893540  0.08217785  0.50718902    -0.06020
N891        N  0.72789514  0.11051714  0.51748398    -0.58810
N892        N  0.76549084  0.08651402  0.49127638    -0.07330
N893        N  0.77277490  0.11619406  0.48978354    -0.61640
N894        N  0.72961947  0.02280805  0.45744355    -0.06320
N895        N  0.71407202  0.00877420  0.43367729    -0.58830
Mn896      Mn  0.79448338  0.05023123  0.47069431     1.20190
Mn897      Mn  0.72591620  0.02917320  0.51338483     1.10090
Cl898      Cl  0.78277232  0.01446958  0.51720037    -0.86800
C899        C  0.73211299  0.01461427  0.40659884     0.95530
C900        C  0.74964640  0.13159435  0.50589050     0.95330
N901        N  0.17786333  0.96869279  0.52731907    -0.06950
N902        N  0.15499495  0.95887884  0.50912041    -0.59070
N903        N  0.22376477  0.97680540  0.58561080    -0.06630
N904        N  0.21597909  0.95352071  0.60514486    -0.61200
N905        N  0.20253393  0.00028169  0.58809391    -0.06230
N906        N  0.18287566  0.99469842  0.61169485    -0.59050
N907        N  0.20387547  0.95096890  0.52337736    -0.05910
N908        N  0.19934857  0.92919431  0.50185558    -0.61550
C909        C  0.16864789  0.93457064  0.49316447     0.95220
C910        C  0.19057542  0.96506528  0.62160912     0.95000
N911        N  0.29971520  0.01564151  0.54466238    -0.07140
N912        N  0.30014887  0.03523919  0.56956592    -0.59650
N913        N  0.27042546  0.95499472  0.49835039    -0.05260
N914        N  0.26918468  0.92564787  0.48957569    -0.60900
N915        N  0.28727828  0.97240867  0.47904751    -0.07170
N916        N  0.29848507  0.95313691  0.45582010    -0.59920
N917        N  0.29328998  0.98719192  0.55579296    -0.04900
N918        N  0.29462543  0.98640458  0.58677552    -0.60990
Mn919      Mn  0.24873326  0.96741827  0.54063975     1.18440
C920        C  0.29705391  0.01614267  0.59603445     0.97300
C921        C  0.28625856  0.92384037  0.46308507     0.97970
N922        N  0.18527207  0.06511883  0.55929566    -0.07190
N923        N  0.18040748  0.07726578  0.58772425    -0.63500
N924        N  0.17292796  0.05338407  0.48118600    -0.05990
N925        N  0.16366322  0.05206879  0.45166598    -0.64170
N926        N  0.15902613  0.03234619  0.49905470    -0.06700
N927        N  0.14015128  0.01556981  0.48144553    -0.63760
N928        N  0.19833234  0.08558657  0.54014814    -0.05590
N929        N  0.20306860  0.11201922  0.55517939    -0.64450
Mn930      Mn  0.18024172  0.01703773  0.54418444     1.10660
C931        C  0.19188876  0.10665168  0.58493141     0.98530
C932        C  0.14346161  0.02849518  0.45229254     0.98600
N933        N  0.26531958  0.04067561  0.44501877    -0.06700
N934        N  0.27413211  0.03582763  0.41500411    -0.62080
N935        N  0.25804068  0.09358983  0.50639141    -0.06020
N936        N  0.25640518  0.12434642  0.50659252    -0.58810
N937        N  0.28665042  0.08194192  0.49998468    -0.07330
N938        N  0.30512098  0.10667222  0.49350145    -0.61640
N939        N  0.23851343  0.05809369  0.44608064    -0.06320
N940        N  0.22870566  0.06530975  0.41682610    -0.58830
Mn941      Mn  0.28822782  0.02712261  0.49155527     1.20190
Mn942      Mn  0.21640597  0.07280960  0.49324247     1.10090
Cl943      Cl  0.23363657  0.02106147  0.51704975    -0.86800
C944        C  0.25105892  0.05145296  0.39756755     0.95530
C945        C  0.28537052  0.13308608  0.49885540     0.95330
N946        N  0.97556177  0.19057925  0.52269962    -0.06950
N947        N  0.95992707  0.17727661  0.54591303    -0.59070
N948        N  0.00937272  0.20180012  0.45295224    -0.06630
N949        N  0.01779930  0.19818379  0.42320794    -0.61200
N950        N  0.02894047  0.18551338  0.47186060    -0.06230
N951        N  0.05104809  0.17006995  0.45491441    -0.59050
N952        N  0.95616235  0.20734023  0.50447862    -0.05910
N953        N  0.92651661  0.20577642  0.51496208    -0.61550
C954        C  0.92952415  0.18734047  0.54139866     0.95220
C955        C  0.04378245  0.17859894  0.42445632     0.95000
N956        N  0.00604600  0.29701412  0.43976682    -0.07140
N957        N  0.01334452  0.31110201  0.41210932    -0.59650
N958        N  0.94430064  0.27560815  0.48549990    -0.05260
N959        N  0.91338058  0.27288206  0.48836878    -0.60900
N960        N  0.95379420  0.30301183  0.49576164    -0.07170
N961        N  0.92806411  0.31962800  0.50625906    -0.59920
N962        N  0.99379095  0.26959450  0.43367188    -0.04900
N963        N  0.99237841  0.26431328  0.40307091    -0.60990
Mn964      Mn  0.97532876  0.23815099  0.46869930     1.18440
C965        C  0.00473000  0.28985908  0.38952175     0.97300
C966        C  0.90306321  0.30007208  0.50123867     0.97970
N967        N  0.07695489  0.19853153  0.52673916    -0.07190
N968        N  0.09629730  0.17493385  0.53596787    -0.63500
N969        N  0.03267776  0.23960145  0.57961280    -0.05990
N970        N  0.01561600  0.25348764  0.60216768    -0.64170
N971        N  0.01984921  0.21301504  0.57134800    -0.06700
N972        N  0.99380288  0.20890884  0.58830903    -0.63760
N973        N  0.08905676  0.22547846  0.53422213    -0.05590
N974        N  0.11699365  0.22085077  0.54789420    -0.64450
Mn975      Mn  0.02598212  0.19512495  0.52296731     1.10660
C976        C  0.12131724  0.18934586  0.54879926     0.98530
C977        C  0.99087167  0.23472725  0.60670773     0.98600
N978        N  0.01017268  0.31958167  0.54785069    -0.06700
N979        N  0.99099789  0.32985482  0.57184480    -0.62080
N980        N  0.08065010  0.29207367  0.51056076    -0.06020
N981        N  0.11113743  0.28860244  0.50581867    -0.58810
N982        N  0.06579173  0.30966259  0.48879724    -0.07330
N983        N  0.08831089  0.31869215  0.46783485    -0.61640
N984        N  0.03659522  0.30833386  0.56070729    -0.06320
N985        N  0.03767055  0.31300191  0.59118618    -0.58830
Mn986      Mn  0.00861220  0.31049968  0.49268413     1.20190
Mn987      Mn  0.05993912  0.26635810  0.54586530     1.10090
Cl988      Cl  0.01752070  0.25284242  0.50704652    -0.86800
C989        C  0.00934293  0.32565067  0.59916034     0.95530
C990        C  0.11664951  0.30526361  0.47969021     0.95330
N991        N  0.01401585  0.94204485  0.30395139    -0.06950
N992        N  0.99988576  0.91692806  0.31454733    -0.59070
N993        N  0.07987884  0.98438150  0.29713314    -0.06630
N994        N  0.11028126  0.98567146  0.30552828    -0.61200
N995        N  0.06155818  0.98712247  0.32225890    -0.06230
N996        N  0.07819089  0.98825132  0.34807256    -0.59050
N997        N  0.03255166  0.93483390  0.27958400    -0.05910
N998        N  0.03189105  0.90445402  0.27346778    -0.61550
C999        C  0.01082802  0.89388581  0.29494086     0.95220
C1000       C  0.10839767  0.98808456  0.33769323     0.95000
N1001       N  0.05780458  0.02971847  0.21191961    -0.07140
N1002       N  0.07555321  0.05527594  0.20779120    -0.59650
N1003       N  0.03561175  0.95622802  0.20986199    -0.05260
N1004       N  0.03679690  0.92552659  0.20748697    -0.60900
N1005       N  0.00713706  0.96829067  0.20317883    -0.07170
N1006       N  0.98736792  0.94409433  0.19996322    -0.59920
N1007       N  0.07610739  0.00782597  0.22607614    -0.04900
N1008       N  0.10539717  0.01657941  0.23019184    -0.60990
Mn1009     Mn  0.05701767  0.97099536  0.25279387     1.18440
C1010       C  0.10551903  0.04609686  0.21875406     0.97300
C1011       C  0.00693387  0.91711658  0.20242918     0.97970
N1012       N  0.01205654  0.04059403  0.33623403    -0.07190
N1013       N  0.03426638  0.05669805  0.35081295    -0.63500
N1014       N  0.94293251  0.01030243  0.30979742    -0.05990
N1015       N  0.91313195  0.00205162  0.30808466    -0.64170
N1016       N  0.96023290  0.98834032  0.32432806    -0.06700
N1017       N  0.94252152  0.96459907  0.33313517    -0.63760
N1018       N  0.99305335  0.06052635  0.32054028    -0.05590
N1019       N  0.00125108  0.08974729  0.32430831    -0.64450
Mn1020     Mn  0.01157913  0.98928137  0.32336581     1.10660
C1021       C  0.02694971  0.08750651  0.34299720     0.98530
C1022       C  0.91314990  0.97336452  0.32233328     0.98600
N1023       N  0.94619034  0.01888032  0.21868591    -0.06700
N1024       N  0.92107522  0.00451979  0.20603701    -0.62080
N1025       N  0.98405251  0.08212817  0.25196281    -0.06020
N1026       N  0.98381229  0.11247458  0.25781464    -0.58810
N1027       N  0.99735245  0.07546361  0.22439711    -0.07330
N1028       N  0.00724794  0.10223283  0.21101950    -0.61640
N1029       N  0.93586034  0.03352511  0.24427530    -0.06320
N1030       N  0.90543617  0.03072411  0.24924461    -0.58830
Mn1031     Mn  0.00169964  0.02294165  0.21111920     1.20190
Mn1032     Mn  0.96397170  0.04715581  0.28213571     1.10090
Cl1033     Cl  0.00881544  0.00800082  0.26712158    -0.86800
C1034       C  0.89571842  0.01276222  0.22595019     0.95530
C1035       C  0.99861079  0.12501998  0.23264464     0.95330
N1036       N  0.05973131  0.04047773  0.65439043    -0.06950
N1037       N  0.08652682  0.02364978  0.65289750    -0.59070
N1038       N  0.99889696  0.09391982  0.64396341    -0.06630
N1039       N  0.98004957  0.11897127  0.63743610    -0.61200
N1040       N  0.02265959  0.10228958  0.66167290    -0.06230
N1041       N  0.02115738  0.13254763  0.66682952    -0.59050
N1042       N  0.03786390  0.02856790  0.63620058    -0.05910
N1043       N  0.04959163  0.00246034  0.62260348    -0.61550
C1044       C  0.08020389  0.00010039  0.63304139     0.95220
C1045       C  0.99469277  0.14280077  0.65208197     0.95000
N1046       N  0.92559345  0.04778847  0.68156213    -0.07140
N1047       N  0.90037215  0.06412194  0.69105909    -0.59650
N1048       N  0.97528967  0.99387718  0.64641784    -0.05260
N1049       N  0.98704982  0.96898856  0.63100289    -0.60900
N1050       N  0.95941425  0.98436515  0.67135167    -0.07170
N1051       N  0.95854902  0.95358266  0.67312919    -0.59920
N1052       N  0.93764776  0.06017872  0.65575943    -0.04900
N1053       N  0.91978689  0.08541232  0.64685814    -0.60990
Mn1054     Mn  0.98716598  0.04411582  0.64327480     1.18440
C1055       C  0.89646239  0.08757396  0.66956766     0.97300
C1056       C  0.97578714  0.94429773  0.64810979     0.97970
N1057       N  0.03423049  0.10268859  0.73297423    -0.07190
N1058       N  0.03552589  0.13356162  0.73081041    -0.63500
N1059       N  0.06407504  0.03361950  0.75378980    -0.05990
N1060       N  0.08993594  0.02795441  0.77206961    -0.64170
N1061       N  0.07414108  0.04181148  0.72522844    -0.06700
N1062       N  0.10528834  0.04100560  0.72304918    -0.63760
N1063       N  0.01720176  0.09421311  0.75795803    -0.05590
N1064       N  0.00558621  0.12031358  0.77236514    -0.64450
Mn1065     Mn  0.04816182  0.07168789  0.69326495     1.10660
C1066       C  0.01778480  0.14479688  0.75496737     0.98530
C1067       C  0.11545283  0.03245598  0.75190861     0.98600
N1068       N  0.97568523  0.98031766  0.74130688    -0.06700
N1069       N  0.97260464  0.94989230  0.73853949    -0.62080
N1070       N  0.95447076  0.05089491  0.77177733    -0.06020
N1071       N  0.93404150  0.06480469  0.79272642    -0.58810
N1072       N  0.93725254  0.04026822  0.74869107    -0.07330
N1073       N  0.90702018  0.04660637  0.75206774    -0.61640
N1074       N  0.99969972  0.98693544  0.75999769    -0.06320
N1075       N  0.01397420  0.95934941  0.76943543    -0.58830
Mn1076     Mn  0.94962196  0.01305083  0.71070642     1.20190
Mn1077     Mn  0.00935289  0.04109574  0.76398439     1.10090
Cl1078     Cl  0.99926956  0.04201828  0.70333780    -0.86800
C1079       C  0.99614448  0.93630028  0.75571410     0.95530
C1080       C  0.90427205  0.06190718  0.77895562     0.95330
C1081       C  0.98922006  0.28182423  0.23068086    -0.00270
C1082       C  0.99172057  0.26033993  0.25593462    -0.00270
C1083       C  0.74496767  0.98398171  0.24988444    -0.00270
C1084       C  0.76731334  0.98945005  0.27330645    -0.00270
C1085       C  0.99974674  0.78528941  0.25202107    -0.00270
C1086       C  0.99275950  0.76243152  0.23013661    -0.00270
C1087       C  0.23400691  0.05741038  0.25781372    -0.00270
C1088       C  0.25943580  0.05052420  0.23653982    -0.00270
C1089       C  0.27319474  0.28468110  0.47246437    -0.00270
C1090       C  0.24916071  0.26363919  0.46698435    -0.00270
C1091       C  0.74371026  0.28945344  0.51011151    -0.00270
C1092       C  0.77021386  0.26903700  0.50885524    -0.00270
C1093       C  0.28233052  0.76495718  0.46269087    -0.00270
C1094       C  0.26123778  0.79095095  0.45800701    -0.00270
C1095       C  0.27607153  0.04831991  0.74522486    -0.00270
C1096       C  0.25022590  0.04295366  0.72559389    -0.00270
C1097       C  0.23298541  0.28751526  0.96785344    -0.00270
C1098       C  0.26123289  0.26967372  0.96239075    -0.00270
C1099       C  0.26085504  0.76470721  0.98741777    -0.00270
C1100       C  0.28457273  0.78271159  0.00096211    -0.00270
C1101       C  0.51542643  0.75922349  0.26116301    -0.00270
C1102       C  0.52142409  0.78252094  0.23885797    -0.00270
C1103       C  0.50680734  0.27956197  0.25610802    -0.00270
C1104       C  0.50428400  0.25784470  0.23186634    -0.00270
C1105       C  0.49881944  0.29444958  0.73281009    -0.00270
C1106       C  0.49562888  0.27125762  0.75609260    -0.00270
C1107       C  0.00624303  0.30120760  0.75811049    -0.00270
C1108       C  0.00102234  0.28194651  0.73235748    -0.00270
C1109       C  0.75734334  0.28449414  0.01577171    -0.00270
C1110       C  0.73478427  0.26162803  0.01804635    -0.00270
C1111       C  0.25755428  0.53012759  0.23849103    -0.00270
C1112       C  0.23292014  0.53618126  0.21739577    -0.00270
C1113       C  0.73560920  0.49733309  0.27066485    -0.00270
C1114       C  0.76076666  0.49068079  0.24971768    -0.00270
C1115       C  0.27985144  0.50190620  0.72162825    -0.00270
C1116       C  0.25687414  0.49823165  0.74539450    -0.00270
C1117       C  0.00577677  0.77617889  0.75347552    -0.00270
C1118       C  0.00637323  0.79911774  0.72954800    -0.00270
C1119       C  0.75010156  0.05813998  0.77868775    -0.00270
C1120       C  0.77155157  0.06376460  0.75400525    -0.00270
C1121       C  0.75601030  0.78769580  0.99020789    -0.00270
C1122       C  0.77980406  0.76421274  0.98829690    -0.00270
C1123       C  0.75587407  0.57628026  0.74434213    -0.00270
C1124       C  0.78118944  0.57407236  0.76557611    -0.00270
C1125       C  0.75729777  0.77071006  0.51307148    -0.00270
C1126       C  0.78373441  0.78840025  0.51987514    -0.00270
C1127       C  0.53735946  0.77034571  0.73971173    -0.00270
C1128       C  0.53894485  0.79324366  0.76328760    -0.00270
C1129       C  0.82371084  0.03822572  0.77132399    -0.21140
C1130       C  0.80675826  0.06633982  0.76291803    -0.07710
C1131       C  0.82174249  0.09515412  0.76967990     0.13160
C1132       C  0.85374754  0.09464632  0.78127088    -0.21190
C1133       C  0.87043108  0.06619544  0.78990214    -0.07710
C1134       C  0.85292334  0.03813106  0.78791765     0.13150
C1135       C  0.86702749  0.00699416  0.80031990    -0.24540
H1136       H  0.81285012  0.01589360  0.76694525     0.14440
H1137       H  0.86637514  0.11651832  0.78167579     0.14460
C1138       C  0.80524587  0.12679977  0.76384850    -0.24490
H1139       H  0.85005045  0.98762031  0.79796833     0.04680
H1140       H  0.87284164  0.00923512  0.82589958     0.07900
H1141       H  0.88912290  0.99992120  0.78724510     0.07900
H1142       H  0.78038737  0.12477413  0.75560852     0.07890
H1143       H  0.81861481  0.14017943  0.74558301     0.07890
H1144       H  0.80449702  0.14032991  0.78631164     0.04660
C1145       C  0.03287313  0.23244515  0.74861283    -0.21140
C1146       C  0.00357330  0.24586765  0.73769771    -0.07710
C1147       C  0.97705722  0.22570004  0.73759393     0.13160
C1148       C  0.98114072  0.19315309  0.74663554    -0.21190
C1149       C  0.01080650  0.17997512  0.75693466    -0.07710
C1150       C  0.03662596  0.20054069  0.75865100     0.13150
C1151       C  0.06877388  0.18859929  0.77067098    -0.24540
H1152       H  0.05323393  0.24723906  0.74959322     0.14440
H1153       H  0.96141844  0.17755583  0.74402735     0.14460
C1154       C  0.94444762  0.23795641  0.72743675    -0.24490
H1155       H  0.08605120  0.20782741  0.77176857     0.04680
H1156       H  0.07901524  0.17009496  0.75477222     0.07900
H1157       H  0.06612230  0.17854765  0.79503564     0.07900
H1158       H  0.94477817  0.24485776  0.70200162     0.07890
H1159       H  0.93667850  0.25869655  0.74169468     0.07890
H1160       H  0.92630837  0.21966644  0.73043147     0.04660
C1161       C  0.17029986  0.00863522  0.75747320    -0.21140
C1162       C  0.15027722  0.03575728  0.75869680    -0.07710
C1163       C  0.16440065  0.06534803  0.75274984     0.13160
C1164       C  0.19678413  0.06669295  0.74304065    -0.21190
C1165       C  0.21634720  0.03927619  0.73918304    -0.07710
C1166       C  0.20285490  0.00992321  0.74854186     0.13150
C1167       C  0.22145857  0.97911533  0.74999127    -0.24540
H1168       H  0.15995520  0.98579555  0.76148699     0.14440
H1169       H  0.20664113  0.08942511  0.73749665     0.14460
C1170       C  0.14476727  0.09579971  0.75548005    -0.24490
H1171       H  0.21147648  0.96175115  0.73380235     0.04680
H1172       H  0.22035231  0.96925583  0.77456210     0.07900
H1173       H  0.24634167  0.98196267  0.74345300     0.07900
H1174       H  0.13443562  0.09753220  0.77978586     0.07890
H1175       H  0.12515318  0.09675301  0.73782411     0.07890
H1176       H  0.15942656  0.11678638  0.75122334     0.04660
C1177       C  0.03038741  0.84949524  0.75178261    -0.21140
C1178       C  0.00425837  0.83414620  0.73806153    -0.07710
C1179       C  0.97553172  0.85223429  0.73409319     0.13160
C1180       C  0.97392035  0.88424110  0.74271132    -0.21190
C1181       C  0.00040654  0.90044876  0.75427865    -0.07710
C1182       C  0.02904588  0.88235059  0.75919436     0.13150
C1183       C  0.05832615  0.89759978  0.77132899    -0.24540
H1184       H  0.05240012  0.83599914  0.75595784     0.14440
H1185       H  0.95125648  0.89697562  0.73925521     0.14460
C1186       C  0.94554932  0.83882564  0.72096978    -0.24490
H1187       H  0.07873244  0.88023958  0.77382911     0.04680
H1188       H  0.05325483  0.90796639  0.79502586     0.07900
H1189       H  0.06544641  0.91652730  0.75448843     0.07900
H1190       H  0.92602363  0.84136717  0.73879131     0.07890
H1191       H  0.94824382  0.81354065  0.71496313     0.07890
H1192       H  0.93826549  0.85222908  0.69918092     0.04660
C1193       C  0.17375462  0.06601738  0.27010908    -0.21140
C1194       C  0.19893244  0.06649795  0.24750721    -0.07710
C1195       C  0.18881665  0.07775009  0.21679023     0.13160
C1196       C  0.15703456  0.07321825  0.20648199    -0.21190
C1197       C  0.13299167  0.06570297  0.22834332    -0.07710
C1198       C  0.14127498  0.06626774  0.26098091     0.13150
C1199       C  0.11565316  0.06665909  0.28627752    -0.24540
H1200       H  0.17899686  0.06449953  0.29521624     0.14440
H1201       H  0.15092856  0.07658862  0.18161658     0.14460
C1202       C  0.20757999  0.10099952  0.19792738    -0.24490
H1203       H  0.12597270  0.06758766  0.31051268     0.04680
H1204       H  0.10116885  0.04540074  0.28502042     0.07900
H1205       H  0.09965270  0.08792207  0.28282619     0.07900
H1206       H  0.21048789  0.09300350  0.17309078     0.07890
H1207       H  0.23089644  0.10543730  0.20907435     0.07890
H1208       H  0.19401963  0.12404407  0.19712742     0.04660
C1209       C  0.97207532  0.83852263  0.23542888    -0.21140
C1210       C  0.00079922  0.82001042  0.24026699    -0.07710
C1211       C  0.02897887  0.83296488  0.22761696     0.13160
C1212       C  0.02764985  0.86203033  0.21106935    -0.21190
C1213       C  0.00022660  0.88249836  0.21004936    -0.07710
C1214       C  0.97175006  0.87009899  0.22246628     0.13150
C1215       C  0.94134771  0.89000994  0.22263679    -0.24540
H1216       H  0.94973391  0.82865613  0.24271270     0.14440
H1217       H  0.04983431  0.86993145  0.20090497     0.14460
C1218       C  0.06171805  0.81778419  0.23103739    -0.24490
H1219       H  0.92120044  0.87683416  0.23283307     0.04680
H1220       H  0.93507631  0.89739420  0.19793289     0.07900
H1221       H  0.94446652  0.91131651  0.23728821     0.07900
H1222       H  0.07203428  0.81281626  0.20719572     0.07890
H1223       H  0.06172340  0.79574774  0.24488464     0.07890
H1224       H  0.07749912  0.83405896  0.24344882     0.04660
C1225       C  0.81041206  0.02379541  0.25079139    -0.21140
C1226       C  0.80206753  0.99397347  0.26261337    -0.07710
C1227       C  0.82446816  0.96842704  0.25728344     0.13160
C1228       C  0.85390609  0.97351598  0.24092518    -0.21190
C1229       C  0.86143088  0.00343091  0.22821043    -0.07710
C1230       C  0.83836013  0.02846571  0.23273291     0.13150
C1231       C  0.84367237  0.06109664  0.21909709    -0.24540
H1232       H  0.79384315  0.04360828  0.25364346     0.14440
H1233       H  0.87194664  0.95453182  0.23996347     0.14460
C1234       C  0.81837421  0.93619233  0.27087813    -0.24490
H1235       H  0.82243803  0.07723622  0.22237008     0.04680
H1236       H  0.84867494  0.05945903  0.19322111     0.07900
H1237       H  0.86404228  0.07209125  0.23082311     0.07900
H1238       H  0.79601470  0.92735769  0.26118382     0.07890
H1239       H  0.81609606  0.93751335  0.29713106     0.07890
H1240       H  0.83808534  0.91888412  0.26521327     0.04660
C1241       C  0.02293493  0.20786090  0.25201799    -0.21140
C1242       C  0.99328929  0.22480172  0.24963662    -0.07710
C1243       C  0.96723750  0.20849284  0.23682739     0.13160
C1244       C  0.97138666  0.17693757  0.22707167    -0.21190
C1245       C  0.00057140  0.16002698  0.23008445    -0.07710
C1246       C  0.02682432  0.17591598  0.24240073     0.13150
C1247       C  0.05880526  0.15883635  0.24602832    -0.24540
H1248       H  0.04347137  0.21983324  0.26063507     0.14440
H1249       H  0.95074100  0.16457203  0.21901793     0.14460
C1250       C  0.93409072  0.22276350  0.23404417    -0.24490
H1251       H  0.07688203  0.17438528  0.25611366     0.04680
H1252       H  0.06741132  0.15072229  0.22238153     0.07900
H1253       H  0.05682574  0.13795432  0.26207284     0.07900
H1254       H  0.92645534  0.22295768  0.20877198     0.07890
H1255       H  0.93250482  0.24696029  0.24288486     0.07890
H1256       H  0.91733974  0.20853676  0.24829414     0.04660
C1257       C  0.02907918  0.32122450  0.65459824    -0.21140
C1258       C  0.00169607  0.32362615  0.63481328    -0.07710
C1259       C  0.97252414  0.31470982  0.64895896     0.13160
C1260       C  0.97208665  0.30329984  0.68132082    -0.21190
C1261       C  0.00066571  0.29656701  0.69873058    -0.07710
C1262       C  0.02954085  0.30487849  0.68397350     0.13150
C1263       C  0.06141065  0.29272358  0.69662242    -0.24540
H1264       H  0.05183825  0.32814792  0.64495658     0.14440
H1265       H  0.94949694  0.29794277  0.69220779     0.14460
C1266       C  0.94232609  0.31591454  0.62980171    -0.24490
H1267       H  0.08172264  0.30262417  0.68324840     0.04680
H1268       H  0.06312340  0.26669819  0.69429839     0.07900
H1269       H  0.06441562  0.29815300  0.72188424     0.07900
H1270       H  0.94501103  0.29997474  0.60910558     0.07890
H1271       H  0.93716650  0.34046445  0.62115677     0.07890
H1272       H  0.92164606  0.30822957  0.64416846     0.04660
C1273       C  0.84781996  0.31019819  0.48224080    -0.21140
C1274       C  0.86811652  0.30446126  0.50834740    -0.07710
C1275       C  0.85504879  0.28954588  0.53551155     0.13160
C1276       C  0.82349445  0.27846674  0.53495311    -0.21190
C1277       C  0.80377092  0.28234281  0.50801718    -0.07710
C1278       C  0.81615327  0.29973266  0.48165843     0.13150
C1279       C  0.79784764  0.30603102  0.45136290    -0.24540
H1280       H  0.85767580  0.32063259  0.46081832     0.14440
H1281       H  0.81432766  0.26614221  0.55560321     0.14460
C1282       C  0.87527225  0.28397728  0.56467078    -0.24490
H1283       H  0.81100497  0.29503845  0.43109897     0.04680
H1284       H  0.79552060  0.33191515  0.44681323     0.07900
H1285       H  0.77372430  0.29645620  0.45205746     0.07900
H1286       H  0.88331374  0.30694787  0.57355616     0.07890
H1287       H  0.89649781  0.26878414  0.55863118     0.07890
H1288       H  0.86190783  0.27225916  0.58410138     0.04660
C1289       C  0.20213622  0.28905884  0.49498905    -0.21140
C1290       C  0.21439855  0.27641067  0.46668080    -0.07710
C1291       C  0.19496708  0.28094405  0.43894860     0.13160
C1292       C  0.16291060  0.29342383  0.44162421    -0.21190
C1293       C  0.15129423  0.30641637  0.47028604    -0.07710
C1294       C  0.17318722  0.30678728  0.49611066     0.13150
C1295       C  0.16545997  0.32413602  0.52651826    -0.24540
H1296       H  0.21584594  0.28611705  0.51650950     0.14440
H1297       H  0.14702532  0.29265395  0.42139813     0.14460
C1298       C  0.20730382  0.27386282  0.40619706    -0.24490
H1299       H  0.18446718  0.34095745  0.53136179     0.04680
H1300       H  0.16410394  0.30700889  0.54669748     0.07900
H1301       H  0.14263920  0.33822731  0.52501122     0.07900
H1302       H  0.23337555  0.26935265  0.40605544     0.07890
H1303       H  0.20259063  0.29476030  0.39041308     0.07890
H1304       H  0.19508640  0.25329675  0.39644322     0.04660
C1305       C  0.02624921  0.27304197  0.30368021    -0.21140
C1306       C  0.99560669  0.27176024  0.28996688    -0.07710
C1307       C  0.96909616  0.28175316  0.30894054     0.13160
C1308       C  0.97384051  0.29299147  0.33997586    -0.21190
C1309       C  0.00416715  0.29291918  0.35407719    -0.07710
C1310       C  0.03070989  0.28293787  0.33542448     0.13150
C1311       C  0.06360952  0.28105996  0.34970195    -0.24540
H1312       H  0.04685650  0.26498131  0.29018723     0.14440
H1313       H  0.95319513  0.29880097  0.35470799     0.14460
C1314       C  0.93533954  0.27772712  0.29823963    -0.24490
H1315       H  0.08191757  0.27292916  0.33215477     0.04680
H1316       H  0.06423057  0.26416614  0.37015348     0.07900
H1317       H  0.06995052  0.30479028  0.35808767     0.07900
H1318       H  0.93111344  0.25213097  0.29610580     0.07890
H1319       H  0.93085224  0.29005987  0.27530155     0.07890
H1320       H  0.91765895  0.28746651  0.31562087     0.04660
C1321       C  0.07000976  0.11275536  0.37382749    -0.21140
C1322       C  0.04324001  0.11597400  0.35392489    -0.07710
C1323       C  0.03050718  0.14710843  0.34771445     0.13160
C1324       C  0.03930538  0.17134802  0.36756023    -0.21190
C1325       C  0.05652673  0.16392848  0.39529806    -0.07710
C1326       C  0.07634753  0.13646992  0.39571435     0.13150
C1327       C  0.10367837  0.13237774  0.41866500    -0.24540
H1328       H  0.08448731  0.09160115  0.37367136     0.14440
H1329       H  0.02749330  0.19445935  0.36484497     0.14460
C1330       C  0.00593350  0.15525988  0.32251814    -0.24490
H1331       H  0.11927956  0.11152762  0.41262242     0.04680
H1332       H  0.09481392  0.12910362  0.44331220     0.07900
H1333       H  0.11857348  0.15352544  0.41742770     0.07900
H1334       H  0.98253182  0.14561907  0.32913197     0.07890
H1335       H  0.01429395  0.14571447  0.29952546     0.07890
H1336       H  0.00205954  0.18123219  0.31927646     0.04660
C1337       C  0.99225579  0.23081286  0.66046308    -0.21140
C1338       C  0.97104529  0.23568164  0.63552828    -0.07710
C1339       C  0.94533638  0.21545477  0.63513311     0.13160
C1340       C  0.95169820  0.18384967  0.64428071    -0.21190
C1341       C  0.98254417  0.17531244  0.65532387    -0.07710
C1342       C  0.00280010  0.19960396  0.66566867     0.13150
C1343       C  0.03745983  0.19431284  0.67482017    -0.24540
H1344       H  0.00926226  0.24874636  0.66436023     0.14440
H1345       H  0.93455753  0.16601423  0.63962308     0.14460
C1346       C  0.91475160  0.22594585  0.61932331    -0.24490
H1347       H  0.04939444  0.21666052  0.67960891     0.04680
H1348       H  0.05091333  0.18270580  0.65510152     0.07900
H1349       H  0.03963099  0.18000380  0.69667043     0.07900
H1350       H  0.91965707  0.23247843  0.59422108     0.07890
H1351       H  0.90419127  0.24682021  0.63179767     0.07890
H1352       H  0.89716792  0.20706143  0.61977724     0.04660
C1353       C  0.25685599  0.00862634  0.67814340    -0.21140
C1354       C  0.25572612  0.03929810  0.68987209    -0.07710
C1355       C  0.26605135  0.06380649  0.66906711     0.13160
C1356       C  0.27910457  0.05635418  0.63854623    -0.21190
C1357       C  0.28419031  0.02474743  0.62886039    -0.07710
C1358       C  0.27361563  0.00052394  0.65027488     0.13150
C1359       C  0.28232993  0.96554968  0.64663527    -0.24540
H1360       H  0.24787343  0.98984384  0.69267786     0.14440
H1361       H  0.28604674  0.07532051  0.62270811     0.14460
C1362       C  0.26298546  0.09803850  0.67815124    -0.24490
H1363       H  0.30851218  0.96219112  0.64316631     0.04680
H1364       H  0.27590411  0.95137486  0.66799990     0.07900
H1365       H  0.26988371  0.95496142  0.62666039     0.07900
H1366       H  0.28681237  0.10862245  0.67740291     0.07890
H1367       H  0.25277984  0.10124204  0.70231726     0.07890
H1368       H  0.24708585  0.11099572  0.66095843     0.04660
C1369       C  0.25744679  0.21706910  0.50394114    -0.21140
C1370       C  0.25717062  0.22810808  0.47235888    -0.07710
C1371       C  0.27148907  0.20747460  0.44923724     0.13160
C1372       C  0.28577302  0.17759202  0.45859599    -0.21190
C1373       C  0.28753383  0.16768469  0.49071116    -0.07710
C1374       C  0.27443372  0.18904115  0.51352754     0.13150
C1375       C  0.27807868  0.18175996  0.54859606    -0.24540
H1376       H  0.24564479  0.23163959  0.52169321     0.14440
H1377       H  0.29339246  0.16089800  0.44050462     0.14460
C1378       C  0.26919210  0.21509073  0.41432086    -0.24490
H1379       H  0.26897892  0.20164039  0.56344412     0.04680
H1380       H  0.30378874  0.17773642  0.55419336     0.07900
H1381       H  0.26502437  0.16038907  0.55544085     0.07900
H1382       H  0.27936942  0.23821766  0.40880748     0.07890
H1383       H  0.24378527  0.21530635  0.40708944     0.07890
H1384       H  0.28227229  0.19708539  0.39976410     0.04660
C1385       C  0.30437546  0.86961104  0.47493982    -0.21140
C1386       C  0.29288346  0.89067760  0.45100358    -0.07710
C1387       C  0.27353533  0.87741344  0.42728781     0.13160
C1388       C  0.26473273  0.84506035  0.42944771    -0.21190
C1389       C  0.27300361  0.82528258  0.45585911    -0.07710
C1390       C  0.29262680  0.83894603  0.47935695     0.13150
C1391       C  0.29888557  0.82398408  0.51151405    -0.24540
H1392       H  0.31821592  0.87925062  0.49407102     0.14440
H1393       H  0.24998218  0.83569640  0.41094906     0.14460
C1394       C  0.26077833  0.89744768  0.40004789    -0.24490
H1395       H  0.28977934  0.84017665  0.53034925     0.04680
H1396       H  0.32492708  0.81983488  0.51501653     0.07900
H1397       H  0.28657933  0.80168586  0.51485541     0.07900
H1398       H  0.26909522  0.88702284  0.37723625     0.07890
H1399       H  0.26911742  0.92201159  0.40100450     0.07890
H1400       H  0.23428288  0.89831363  0.40042533     0.04660
C1401       C  0.25700073  0.07747402  0.30947985    -0.21140
C1402       C  0.24016522  0.05400356  0.29379083    -0.07710
C1403       C  0.22819615  0.02878064  0.31306604     0.13160
C1404       C  0.23267354  0.02860139  0.34645658    -0.21190
C1405       C  0.24918611  0.05214543  0.36179214    -0.07710
C1406       C  0.26178209  0.07670448  0.34292420     0.13150
C1407       C  0.28007087  0.10234926  0.35823140    -0.24540
H1408       H  0.26617002  0.09681972  0.29547035     0.14440
H1409       H  0.22303313  0.00980009  0.36093191     0.14460
C1410       C  0.21060231  0.00147070  0.29949682    -0.24490
H1411       H  0.28847349  0.11979160  0.34039476     0.04680
H1412       H  0.30126685  0.09172770  0.37069267     0.07900
H1413       H  0.26459130  0.11511156  0.37571355     0.07900
H1414       H  0.22680856  0.98591253  0.28557677     0.07890
H1415       H  0.19009727  0.00933435  0.28465825     0.07890
H1416       H  0.20089831  0.98628438  0.31857117     0.04660
C1417       C  0.19402531  0.16198677  0.59540180    -0.21140
C1418       C  0.18205645  0.13301013  0.60571023    -0.07710
C1419       C  0.14932892  0.13297975  0.61279716     0.13160
C1420       C  0.12905637  0.15185356  0.59359933    -0.21190
C1421       C  0.14217270  0.17391739  0.57243957    -0.07710
C1422       C  0.17441378  0.18177879  0.57604982     0.13150
C1423       C  0.18841645  0.20896975  0.55805197    -0.24540
H1424       H  0.21961564  0.16472954  0.59491771     0.14440
H1425       H  0.10351363  0.14868291  0.59443396     0.14460
C1426       C  0.13574667  0.10911657  0.63535492    -0.24490
H1427       H  0.21391730  0.21126783  0.56392337     0.04680
H1428       H  0.17583089  0.23148654  0.56463794     0.07900
H1429       H  0.18626679  0.20534773  0.53202672     0.07900
H1430       H  0.15506004  0.09500950  0.64758377     0.07890
H1431       H  0.12052575  0.09282674  0.62219164     0.07890
H1432       H  0.12103168  0.12152179  0.65369431     0.04660
C1433       C  0.15528349  0.99133812  0.40932502    -0.21140
C1434       C  0.13482141  0.01440259  0.42303610    -0.07710
C1435       C  0.11311121  0.03178098  0.40460545     0.13160
C1436       C  0.11617805  0.03022932  0.37173608    -0.21190
C1437       C  0.13080266  0.00288313  0.35839377    -0.07710
C1438       C  0.15128336  0.98342865  0.37739395     0.13150
C1439       C  0.16675397  0.95326137  0.36534723    -0.24540
H1440       H  0.17296206  0.97861166  0.42380998     0.14440
H1441       H  0.09948040  0.04414923  0.35734008     0.14460
C1442       C  0.08470927  0.04790918  0.42058360    -0.24490
H1443       H  0.15788577  0.93288659  0.37929090     0.04680
H1444       H  0.19303712  0.95393076  0.36819625     0.07900
H1445       H  0.16141798  0.94960436  0.33983831     0.07900
H1446       H  0.09202596  0.06876934  0.43400119     0.07890
H1447       H  0.07398146  0.03107539  0.43768790     0.07890
H1448       H  0.06553211  0.05456570  0.40364109     0.04660
C1449       C  0.14295013  0.94206726  0.60342193    -0.21140
C1450       C  0.16346914  0.94547473  0.62958895    -0.07710
C1451       C  0.14941901  0.95133451  0.65925434     0.13160
C1452       C  0.11840237  0.96441894  0.66028922    -0.21190
C1453       C  0.10196803  0.97197838  0.63188452    -0.07710
C1454       C  0.11280180  0.95789809  0.60337046     0.13150
C1455       C  0.09539477  0.96205892  0.57227614    -0.24540
H1456       H  0.15315328  0.93481323  0.58079802     0.14440
H1457       H  0.10909240  0.97297576  0.68284904     0.14460
C1458       C  0.16894844  0.95027885  0.68894887    -0.24490
H1459       H  0.09145321  0.93850226  0.56196963     0.04680
H1460       H  0.10995697  0.97595835  0.55543322     0.07900
H1461       H  0.07181139  0.97436321  0.57486945     0.07900
H1462       H  0.17030187  0.97465326  0.69813182     0.07890
H1463       H  0.19351360  0.94062316  0.68426625     0.07890
H1464       H  0.15759198  0.93504728  0.70711823     0.04660
C1465       C  0.76991553  0.18174085  0.48416838    -0.21140
C1466       C  0.75114462  0.16722872  0.50782664    -0.07710
C1467       C  0.74010469  0.18625217  0.53324866     0.13160
C1468       C  0.74774255  0.21879069  0.53386361    -0.21190
C1469       C  0.76609414  0.23325806  0.50957054    -0.07710
C1470       C  0.77836552  0.21351432  0.48516205     0.13150
C1471       C  0.80065040  0.22516732  0.45972821    -0.24540
H1472       H  0.77898881  0.16772252  0.46449751     0.14440
H1473       H  0.73956508  0.23298677  0.55371231     0.14460
C1474       C  0.72110626  0.17227367  0.55998159    -0.24490
H1475       H  0.80840400  0.20610922  0.44317162     0.04680
H1476       H  0.82258588  0.23393646  0.47069574     0.07900
H1477       H  0.78859653  0.24385762  0.44516042     0.07900
H1478       H  0.73537514  0.15288620  0.57181416     0.07890
H1479       H  0.69879848  0.16273742  0.55046031     0.07890
H1480       H  0.71446277  0.19022800  0.57812742     0.04660
C1481       C  0.73009556  0.02898509  0.34923616    -0.21140
C1482       C  0.72982158  0.00427648  0.37212661    -0.07710
C1483       C  0.74212558  0.97427307  0.36193472     0.13160
C1484       C  0.75399870  0.97003771  0.33017246    -0.21190
C1485       C  0.75600616  0.99540783  0.30798733    -0.07710
C1486       C  0.74389327  0.02544168  0.31845371     0.13150
C1487       C  0.74894504  0.05509766  0.29926710    -0.24540
H1488       H  0.72294249  0.05255892  0.35697258     0.14440
H1489       H  0.76293671  0.94685657  0.32306790     0.14460
C1490       C  0.74482444  0.94714680  0.38535602    -0.24490
H1491       H  0.73485303  0.07563416  0.30880217     0.04680
H1492       H  0.74200940  0.05235449  0.27423040     0.07900
H1493       H  0.77448901  0.06086873  0.30046786     0.07900
H1494       H  0.72082070  0.94207000  0.39496888     0.07890
H1495       H  0.76070466  0.95326894  0.40527536     0.07890
H1496       H  0.75493683  0.92534676  0.37413550     0.04660
C1497       C  0.72995794  0.03559785  0.67755173    -0.21140
C1498       C  0.73295982  0.06027306  0.65483492    -0.07710
C1499       C  0.75012629  0.08665066  0.66499553     0.13160
C1500       C  0.76201641  0.08794296  0.69705201    -0.21190
C1501       C  0.76074780  0.06184776  0.71871782    -0.07710
C1502       C  0.74643926  0.03451529  0.70677332     0.13150
C1503       C  0.75140674  0.00232301  0.72199882    -0.24540
H1504       H  0.71874531  0.01415407  0.67023187     0.14440
H1505       H  0.77366887  0.10893796  0.70446657     0.14460
C1506       C  0.75726271  0.11263807  0.64164344    -0.24490
H1507       H  0.76568735  0.98689183  0.70570611     0.04680
H1508       H  0.72808914  0.99130648  0.72568608     0.07900
H1509       H  0.76442537  0.00291799  0.74477078     0.07900
H1510       H  0.73457542  0.12347735  0.63236618     0.07890
H1511       H  0.77154791  0.10285042  0.62149723     0.07890
H1512       H  0.77109742  0.13140580  0.65281443     0.04660
C1513       C  0.74291235  0.86791729  0.54457763    -0.21140
C1514       C  0.74414783  0.88758280  0.51700461    -0.07710
C1515       C  0.76327562  0.87551144  0.49168711     0.13160
C1516       C  0.77834829  0.84436287  0.49411788    -0.21190
C1517       C  0.77681549  0.82476498  0.52192997    -0.07710
C1518       C  0.75922555  0.83818054  0.54780114     0.13150
C1519       C  0.75573623  0.82139952  0.57938525    -0.24540
H1520       H  0.72912788  0.87609511  0.56492845     0.14440
H1521       H  0.79126350  0.83500405  0.47373199     0.14460
C1522       C  0.76802828  0.89529019  0.46223605    -0.24490
H1523       H  0.77012793  0.83315045  0.59755725     0.04680
H1524       H  0.76296674  0.79612476  0.57829530     0.07900
H1525       H  0.73044183  0.82265936  0.58735842     0.07900
H1526       H  0.77974077  0.91745996  0.46854555     0.07890
H1527       H  0.74457272  0.90122254  0.45104417     0.07890
H1528       H  0.78334518  0.88262096  0.44454425     0.04660
C1529       C  0.85899081  0.14746014  0.53613353    -0.21140
C1530       C  0.87540248  0.11819724  0.54116808    -0.07710
C1531       C  0.90164993  0.11614916  0.56221490     0.13160
C1532       C  0.91313820  0.14422745  0.57360568    -0.21190
C1533       C  0.90345583  0.17267740  0.55848762    -0.07710
C1534       C  0.87288135  0.17519772  0.54526333     0.13150
C1535       C  0.85583618  0.20663360  0.53997172    -0.24540
H1536       H  0.83659246  0.14894873  0.52328940     0.14440
H1537       H  0.93484131  0.14320403  0.58755394     0.14460
C1538       C  0.91962485  0.08556930  0.57033872    -0.24490
H1539       H  0.83153443  0.20383358  0.53024278     0.04680
H1540       H  0.86901826  0.22167562  0.52310321     0.07900
H1541       H  0.85330838  0.21870954  0.56314999     0.07900
H1542       H  0.92921502  0.07451193  0.54831670     0.07890
H1543       H  0.90372704  0.06915759  0.58291881     0.07890
H1544       H  0.94034321  0.08937559  0.58602148     0.04660
C1545       C  0.86668004  0.94039397  0.38373378    -0.21140
C1546       C  0.84682035  0.96758217  0.38590138    -0.07710
C1547       C  0.83945597  0.98546697  0.35750920     0.13160
C1548       C  0.85647623  0.97839762  0.32993063    -0.21190
C1549       C  0.88356783  0.95856626  0.33209628    -0.07710
C1550       C  0.88486441  0.93548517  0.35622036     0.13150
C1551       C  0.90615776  0.90671603  0.35357460    -0.24540
H1552       H  0.87024285  0.92474691  0.40412839     0.14440
H1553       H  0.85385247  0.99423574  0.30955871     0.14460
C1554       C  0.81810161  0.01499109  0.35617193    -0.24490
H1555       H  0.89060940  0.88612256  0.35484094     0.04680
H1556       H  0.92368981  0.90570123  0.37332880     0.07900
H1557       H  0.91911877  0.90599071  0.33045989     0.07900
H1558       H  0.82912205  0.03437567  0.36928157     0.07890
H1559       H  0.79455882  0.01001196  0.36632957     0.07890
H1560       H  0.81416568  0.02380025  0.33143839     0.04660
C1561       C  0.84623339  0.08928554  0.61626680    -0.21140
C1562       C  0.83917324  0.06019507  0.63082415    -0.07710
C1563       C  0.83340862  0.05942471  0.66406435     0.13160
C1564       C  0.84157590  0.08625211  0.68140526    -0.21190
C1565       C  0.86482805  0.10477863  0.66681386    -0.07710
C1566       C  0.85658119  0.11346146  0.63577289     0.13150
C1567       C  0.85582638  0.14739235  0.62574336    -0.24540
H1568       H  0.84325013  0.09290489  0.59095772     0.14440
H1569       H  0.84056550  0.08513355  0.70708860     0.14460
C1570       C  0.82413990  0.02965992  0.68109403    -0.24490
H1571       H  0.84689029  0.15045274  0.60111500     0.04680
H1572       H  0.88006622  0.15654711  0.62766327     0.07900
H1573       H  0.83954878  0.16120429  0.64168645     0.07900
H1574       H  0.80057744  0.02243778  0.67262841     0.07890
H1575       H  0.82281202  0.03290790  0.70710035     0.07890
H1576       H  0.84220808  0.01041317  0.67638786     0.04660
C1577       C  0.21181014  0.76674296  0.43251535    -0.21140
C1578       C  0.22524834  0.78465429  0.45730829    -0.07710
C1579       C  0.20609876  0.78914262  0.48484276     0.13160
C1580       C  0.17804052  0.77230682  0.48879671    -0.21190
C1581       C  0.16332865  0.75598515  0.46392874    -0.07710
C1582       C  0.18062374  0.75392394  0.43495659     0.13150
C1583       C  0.16615360  0.73851160  0.40675864    -0.24540
H1584       H  0.22582070  0.76274357  0.41114199     0.14440
H1585       H  0.16539183  0.77508341  0.51124074     0.14460
C1586       C  0.21396259  0.81134896  0.51125133    -0.24490
H1587       H  0.18252386  0.73854370  0.38591761     0.04680
H1588       H  0.14359504  0.75142645  0.39997530     0.07900
H1589       H  0.16094553  0.71362061  0.41287962     0.07900
H1590       H  0.19290914  0.82729934  0.51585912     0.07890
H1591       H  0.23411562  0.82631314  0.50538244     0.07890
H1592       H  0.21886383  0.79830026  0.53383244     0.04660
C1593       C  0.03404334  0.76937610  0.30155631    -0.21140
C1594       C  0.00362868  0.77556646  0.28725603    -0.07710
C1595       C  0.97673496  0.76725140  0.30549485     0.13160
C1596       C  0.98061980  0.75268369  0.33558081    -0.21190
C1597       C  0.01056696  0.74830562  0.35066956    -0.07710
C1598       C  0.03771661  0.75665239  0.33300444     0.13150
C1599       C  0.07036188  0.75273714  0.34751373    -0.24540
H1600       H  0.05557675  0.77406085  0.28845331     0.14440
H1601       H  0.95928850  0.74679119  0.34877171     0.14460
C1602       C  0.94337390  0.77459464  0.29392679    -0.24490
H1603       H  0.08929364  0.76005690  0.33068845     0.04680
H1604       H  0.07515115  0.72752043  0.35416439     0.07900
H1605       H  0.07169662  0.76745016  0.36910473     0.07900
H1606       H  0.93898775  0.76110688  0.27249209     0.07890
H1607       H  0.94017455  0.80013334  0.28846596     0.07890
H1608       H  0.92501114  0.76821715  0.31176960     0.04660
C1609       C  0.04673274  0.77892695  0.64928860    -0.21140
C1610       C  0.02427512  0.76134407  0.63253231    -0.07710
C1611       C  0.99432962  0.75749743  0.64769188     0.13160
C1612       C  0.98808827  0.77116523  0.67828671    -0.21190
C1613       C  0.01071384  0.78951810  0.69437058    -0.07710
C1614       C  0.04038932  0.79324883  0.67885672     0.13150
C1615       C  0.06665241  0.81113687  0.69398133    -0.24540
H1616       H  0.07010215  0.78205292  0.63892378     0.14440
H1617       H  0.96565367  0.76673314  0.69006791     0.14460
C1618       C  0.96899819  0.73911524  0.63186199    -0.24490
H1619       H  0.08877380  0.81062310  0.67934519     0.04680
H1620       H  0.07284212  0.80051907  0.71752578     0.07900
H1621       H  0.05892305  0.83628754  0.69652669     0.07900
H1622       H  0.97813453  0.71454862  0.62766952     0.07890
H1623       H  0.96232883  0.75053296  0.60877945     0.07890
H1624       H  0.94712879  0.73804318  0.64679026     0.04660
C1625       C  0.82876736  0.75438478  0.49475112    -0.21140
C1626       C  0.81792503  0.77159289  0.52132186    -0.07710
C1627       C  0.83786304  0.76754318  0.54900584     0.13160
C1628       C  0.86903730  0.75160647  0.54740028    -0.21190
C1629       C  0.87967827  0.73503710  0.52006827    -0.07710
C1630       C  0.85658852  0.73421761  0.49499087     0.13150
C1631       C  0.86082954  0.71242243  0.46702498    -0.24540
H1632       H  0.81458661  0.75557486  0.47343480     0.14440
H1633       H  0.88509880  0.75252756  0.56745253     0.14460
C1634       C  0.82623308  0.77877143  0.58075851    -0.24490
H1635       H  0.83918412  0.69830019  0.46453185     0.04680
H1636       H  0.88131276  0.69530677  0.47007383     0.07900
H1637       H  0.86412965  0.72651613  0.44485395     0.07900
H1638       H  0.80579127  0.76457809  0.58836980     0.07890
H1639       H  0.81891402  0.80406277  0.57923993     0.07890
H1640       H  0.84497507  0.77580784  0.59926969     0.04660
C1641       C  0.87167457  0.83848659  0.57413740    -0.21140
C1642       C  0.88299449  0.82647226  0.54533285    -0.07710
C1643       C  0.86622517  0.83252908  0.51630081     0.13160
C1644       C  0.84307003  0.85589510  0.51631970    -0.21190
C1645       C  0.83441609  0.87074768  0.54415059    -0.07710
C1646       C  0.84665295  0.86091227  0.57387750     0.13150
C1647       C  0.83636424  0.87672956  0.60433220    -0.24540
H1648       H  0.88415307  0.83271403  0.59605896     0.14440
H1649       H  0.83481852  0.86575904  0.49368783     0.14460
C1650       C  0.87579059  0.82024759  0.48369810    -0.24490
H1651       H  0.84888648  0.86594036  0.62526755     0.04680
H1652       H  0.81031671  0.87428719  0.60786660     0.07900
H1653       H  0.84176542  0.90221662  0.60328016     0.07900
H1654       H  0.87902389  0.79422739  0.48400782     0.07890
H1655       H  0.89775597  0.83153474  0.47523604     0.07890
H1656       H  0.85710263  0.82576901  0.46555836     0.04660
C1657       C  0.14079915  0.87522327  0.43429210    -0.21140
C1658       C  0.10927123  0.88757848  0.43235812    -0.07710
C1659       C  0.10471422  0.92041108  0.43428135     0.13160
C1660       C  0.12550004  0.93628764  0.45360140    -0.21190
C1661       C  0.15297765  0.92046338  0.46587849    -0.07710
C1662       C  0.16272157  0.89098912  0.45293606     0.13150
C1663       C  0.19442114  0.87521195  0.46063954    -0.24540
H1664       H  0.14573448  0.85061648  0.42850322     0.14440
H1665       H  0.11906607  0.96021782  0.46050239     0.14460
C1666       C  0.07539605  0.93744810  0.42136974    -0.24490
H1667       H  0.19773927  0.85210254  0.44863774     0.04680
H1668       H  0.19631486  0.87128186  0.48659728     0.07900
H1669       H  0.21369231  0.89076563  0.45288057     0.07900
H1670       H  0.06054493  0.94698096  0.44123280     0.07890
H1671       H  0.06094619  0.92145434  0.40698300     0.07890
H1672       H  0.08264278  0.95736252  0.40586429     0.04660
C1673       C  0.97828706  0.85246335  0.31074494    -0.21140
C1674       C  0.00959309  0.86138929  0.30510440    -0.07710
C1675       C  0.03279921  0.85412941  0.32835986     0.13160
C1676       C  0.02268206  0.85275669  0.35991454    -0.21190
C1677       C  0.99000514  0.85215061  0.36652833    -0.07710
C1678       C  0.96836485  0.84656328  0.34173217     0.13150
C1679       C  0.93530603  0.83472239  0.34762813    -0.24540
H1680       H  0.96024212  0.85624537  0.29269549     0.14440
H1681       H  0.04001292  0.85218008  0.37902555     0.14460
C1682       C  0.06784835  0.85486970  0.32105272    -0.24490
H1683       H  0.91987152  0.83762082  0.32630470     0.04680
H1684       H  0.92351576  0.84707237  0.36770629     0.07900
H1685       H  0.93719612  0.80924915  0.35415718     0.07900
H1686       H  0.07850603  0.87486796  0.33356576     0.07890
H1687       H  0.07216014  0.85767856  0.29514022     0.07890
H1688       H  0.07975795  0.83231661  0.32912512     0.04660
C1689       C  0.96480746  0.88862690  0.64293520    -0.21140
C1690       C  0.98734479  0.91188816  0.64639533    -0.07710
C1691       C  0.01978268  0.90290643  0.65108763     0.13160
C1692       C  0.02970934  0.87209914  0.64361166    -0.21190
C1693       C  0.00785828  0.85272363  0.62940061    -0.07710
C1694       C  0.97522134  0.85803103  0.63547577     0.13150
C1695       C  0.95134721  0.83410316  0.62665942    -0.24540
H1696       H  0.93946918  0.89482308  0.64322289     0.14440
H1697       H  0.05506854  0.86611886  0.64216289     0.14460
C1698       C  0.04437754  0.92499673  0.66248385    -0.24490
H1699       H  0.93599643  0.82866698  0.64741979     0.04680
H1700       H  0.96335360  0.81178670  0.61859801     0.07900
H1701       H  0.93631898  0.84381011  0.60698745     0.07900
H1702       H  0.03439509  0.94894066  0.66789984     0.07890
H1703       H  0.06291611  0.92684634  0.64382947     0.07890
H1704       H  0.05563420  0.91516219  0.68453394     0.04660
C1705       C  0.75158553  0.17926003  0.05637998    -0.21140
C1706       C  0.76331845  0.16085644  0.03088942    -0.07710
C1707       C  0.76692276  0.17607905  0.00101050     0.13160
C1708       C  0.75771633  0.20854791  0.99738364    -0.21190
C1709       C  0.74456320  0.22668375  0.02270138    -0.07710
C1710       C  0.74191400  0.21136579  0.05270911     0.13150
C1711       C  0.72794243  0.22820008  0.08112840    -0.24540
H1712       H  0.74857308  0.16794145  0.07942258     0.14440
H1713       H  0.76053893  0.21937655  0.97427729     0.14460
C1714       C  0.77925979  0.15805922  0.97257765    -0.24490
H1715       H  0.73043530  0.21365075  0.10322285     0.04680
H1716       H  0.70208090  0.23294467  0.07733831     0.07900
H1717       H  0.74013632  0.25057534  0.08505930     0.07900
H1718       H  0.76326912  0.13845340  0.96735741     0.07890
H1719       H  0.80371437  0.14827014  0.97746711     0.07890
H1720       H  0.78040704  0.17342341  0.95099933     0.04660
C1721       C  0.76205237  0.83983644  0.01883931    -0.21140
C1722       C  0.76408124  0.82251882  0.99028069    -0.07710
C1723       C  0.77534465  0.83848199  0.96277669     0.13160
C1724       C  0.78272675  0.87072677  0.96428536    -0.21190
C1725       C  0.77966061  0.88815069  0.99252151    -0.07710
C1726       C  0.76947408  0.87219604  0.02023853     0.13150
C1727       C  0.76485621  0.88968619  0.05099270    -0.24540
H1728       H  0.75462524  0.82836652  0.04044782     0.14440
H1729       H  0.78965442  0.88287311  0.94259633     0.14460
C1730       C  0.77913399  0.82270443  0.93102206    -0.24490
H1731       H  0.75651860  0.87396595  0.07044046     0.04680
H1732       H  0.74676885  0.90931478  0.04779338     0.07900
H1733       H  0.78782573  0.89952017  0.05839557     0.07900
H1734       H  0.77242098  0.79773650  0.93156016     0.07890
H1735       H  0.80443277  0.82345227  0.92319392     0.07890
H1736       H  0.76380020  0.83542895  0.91317813     0.04660
C1737       C  0.78216663  0.03750980  0.82765274    -0.21140
C1738       C  0.76125937  0.06077025  0.81368298    -0.07710
C1739       C  0.75439970  0.08803257  0.83214853     0.13160
C1740       C  0.76728245  0.09065097  0.86336549    -0.21190
C1741       C  0.78708920  0.06663249  0.87766166    -0.07710
C1742       C  0.79554244  0.04044361  0.85832942     0.13150
C1743       C  0.81659549  0.01371153  0.87147828    -0.24540
H1744       H  0.78812787  0.01620985  0.81483720     0.14440
H1745       H  0.75898166  0.11017435  0.87804834     0.14460
C1746       C  0.73208599  0.11387241  0.81956864    -0.24490
H1747       H  0.82091248  0.99475353  0.85378963     0.04680
H1748       H  0.80531580  0.00280035  0.89266164     0.07900
H1749       H  0.83999970  0.02293030  0.87837004     0.07900
H1750       H  0.70825391  0.10421690  0.81520913     0.07890
H1751       H  0.74150225  0.12363016  0.79696757     0.07890
H1752       H  0.72906333  0.13357771  0.83663854     0.04660
C1753       C  0.77110864  0.95711389  0.16471375    -0.21140
C1754       C  0.78197994  0.98533386  0.15085054    -0.07710
C1755       C  0.77951471  0.01284492  0.16987160     0.13160
C1756       C  0.76483785  0.01193343  0.20019230    -0.21190
C1757       C  0.75530027  0.98364555  0.21469526    -0.07710
C1758       C  0.75782759  0.95591868  0.19597074     0.13150
C1759       C  0.74388737  0.92559450  0.20744525    -0.24540
H1760       H  0.77009769  0.93646839  0.14980300     0.14440
H1761       H  0.76070590  0.03383312  0.21279029     0.14460
C1762       C  0.78984018  0.04427542  0.15680388    -0.24490
H1763       H  0.74608629  0.90683067  0.18925044     0.04680
H1764       H  0.71811589  0.92971058  0.21275176     0.07900
H1765       H  0.75638401  0.91662231  0.22895930     0.07900
H1766       H  0.77526407  0.05177852  0.13588170     0.07890
H1767       H  0.81529761  0.04219370  0.14951689     0.07890
H1768       H  0.78719515  0.06324641  0.17473193     0.04660
C1769       C  0.26315377  0.87063900  0.02739674    -0.21140
C1770       C  0.25324149  0.88469949  0.99820358    -0.07710
C1771       C  0.25496400  0.86495464  0.97114118     0.13160
C1772       C  0.26897203  0.83420881  0.97300922    -0.21190
C1773       C  0.27765380  0.81910616  0.00191588    -0.07710
C1774       C  0.27320531  0.83787448  0.02986109     0.13150
C1775       C  0.27745856  0.82404127  0.06265942    -0.24540
H1776       H  0.26306537  0.88515425  0.04844858     0.14440
H1777       H  0.27152481  0.82120563  0.95125869     0.14460
C1778       C  0.24267789  0.87609184  0.93902005    -0.24490
H1779       H  0.30028093  0.83150134  0.07284671     0.04680
H1780       H  0.27664227  0.79804328  0.06262880     0.07900
H1781       H  0.25749761  0.83240172  0.07824004     0.07900
H1782       H  0.26268107  0.87652824  0.92163918     0.07890
H1783       H  0.23061509  0.89984458  0.93961397     0.07890
H1784       H  0.22464641  0.85969460  0.93062104     0.04660
C1785       C  0.24082089  0.18016999  0.95099293    -0.21140
C1786       C  0.24951701  0.16706772  0.98102306    -0.07710
C1787       C  0.26205527  0.18834459  0.00347186     0.13160
C1788       C  0.26762321  0.21992714  0.99487601    -0.21190
C1789       C  0.25963016  0.23335541  0.96535250    -0.07710
C1790       C  0.24490817  0.21296053  0.94328323     0.13150
C1791       C  0.23384046  0.22491495  0.91118512    -0.24540
H1792       H  0.23110432  0.16485682  0.93329715     0.14440
H1793       H  0.27749748  0.23483077  0.01257079     0.14460
C1794       C  0.26800501  0.17915452  0.03796204    -0.24490
H1795       H  0.24614231  0.21103212  0.89222154     0.04680
H1796       H  0.23892072  0.25021296  0.90726131     0.07900
H1797       H  0.20772960  0.22202161  0.90902241     0.07900
H1798       H  0.28963654  0.16350655  0.04030155     0.07890
H1799       H  0.24688764  0.16739669  0.04798979     0.07890
H1800       H  0.27213545  0.20004206  0.05294216     0.04660
C1801       C  0.24800696  0.01758854  0.82689096    -0.21140
C1802       C  0.24177113  0.04452501  0.84562181    -0.07710
C1803       C  0.24793069  0.07409057  0.83074466     0.13160
C1804       C  0.25914444  0.07536562  0.79828037    -0.21190
C1805       C  0.26961410  0.04772719  0.78168955    -0.07710
C1806       C  0.26634633  0.01872581  0.79878878     0.13150
C1807       C  0.28749880  0.98981931  0.79315849    -0.24540
H1808       H  0.24497024  0.99448459  0.83782126     0.14440
H1809       H  0.26100544  0.09806370  0.78635900     0.14460
C1810       C  0.24332894  0.10402792  0.84922963    -0.24490
H1811       H  0.29868965  0.98215269  0.81593125     0.04680
H1812       H  0.30737742  0.99494189  0.77732761     0.07900
H1813       H  0.27437813  0.96929160  0.78514047     0.07900
H1814       H  0.25927625  0.10322426  0.87028530     0.07890
H1815       H  0.21813635  0.10660294  0.85734493     0.07890
H1816       H  0.24898797  0.12511229  0.83454913     0.04660
C1817       C  0.26730963  0.06242116  0.17730391    -0.21140
C1818       C  0.25313880  0.04351813  0.20075812    -0.07710
C1819       C  0.23177163  0.02038796  0.18904736     0.13160
C1820       C  0.22591908  0.01704322  0.15567455    -0.21190
C1821       C  0.23882972  0.03733227  0.13264242    -0.07710
C1822       C  0.25876095  0.06133145  0.14467380     0.13150
C1823       C  0.27087052  0.08749076  0.12357828    -0.24540
H1824       H  0.28304534  0.08060125  0.18472813     0.14440
H1825       H  0.21190742  0.99768536  0.14763938     0.14460
C1826       C  0.21513386  0.99777473  0.21061147    -0.24490
H1827       H  0.26438170  0.11074611  0.13424995     0.04680
H1828       H  0.26013186  0.08776639  0.09950070     0.07900
H1829       H  0.29725473  0.08513178  0.12140898     0.07900
H1830       H  0.18889490  0.00083698  0.20750956     0.07890
H1831       H  0.22048718  0.00165980  0.23563573     0.07890
H1832       H  0.22271514  0.97309451  0.20476787     0.04660
C1833       C  0.53610628  0.20728410  0.24376035    -0.21140
C1834       C  0.50603343  0.22248753  0.23970769    -0.07710
C1835       C  0.47866849  0.20436634  0.24591337     0.13160
C1836       C  0.48216846  0.17240741  0.25651309    -0.21190
C1837       C  0.51233869  0.15748061  0.26091932    -0.07710
C1838       C  0.53962465  0.17550696  0.25436597     0.13150
C1839       C  0.57289063  0.16126966  0.25859732    -0.24540
H1840       H  0.55718830  0.22028741  0.23823716     0.14440
H1841       H  0.46118707  0.15848832  0.25976977     0.14460
C1842       C  0.44556596  0.21798792  0.24025346    -0.24490
H1843       H  0.59138415  0.17900525  0.25437471     0.04680
H1844       H  0.57743984  0.14181609  0.24156350     0.07900
H1845       H  0.57575831  0.15199096  0.28328671     0.07900
H1846       H  0.44330219  0.22607779  0.21512307     0.07890
H1847       H  0.44051374  0.23783526  0.25657561     0.07890
H1848       H  0.42713815  0.20024314  0.24469201     0.04660
C1849       C  0.48675820  0.86262966  0.26601881    -0.21140
C1850       C  0.51301073  0.87990868  0.27661718    -0.07710
C1851       C  0.54353332  0.86464859  0.27365085     0.13160
C1852       C  0.54639479  0.83321787  0.26110713    -0.21190
C1853       C  0.51971355  0.81724488  0.24908727    -0.07710
C1854       C  0.48971299  0.83314455  0.25130834     0.13150
C1855       C  0.45994833  0.81911532  0.23842102    -0.24540
H1856       H  0.46268196  0.87219149  0.26885492     0.14440
H1857       H  0.56953667  0.82107667  0.26118006     0.14460
C1858       C  0.57274950  0.88088798  0.28445284    -0.24490
H1859       H  0.43881225  0.83563748  0.24005688     0.04680
H1860       H  0.45434852  0.79787495  0.25210062     0.07900
H1861       H  0.46328503  0.81295185  0.21309431     0.07900
H1862       H  0.57046148  0.88658560  0.31009218     0.07890
H1863       H  0.57546032  0.90308396  0.27047838     0.07890
H1864       H  0.59468244  0.86573143  0.28111029     0.04660
C1865       C  0.33650272  0.02505360  0.28424715    -0.21140
C1866       C  0.35901977  0.04887830  0.27863961    -0.07710
C1867       C  0.34784442  0.07428234  0.25861858     0.13160
C1868       C  0.31590941  0.07471196  0.24535100    -0.21190
C1869       C  0.29469155  0.04919148  0.24937247    -0.07710
C1870       C  0.30677282  0.02366547  0.26855456     0.13150
C1871       C  0.29001999  0.99304536  0.27176348    -0.24540
H1872       H  0.34305260  0.00506770  0.29953805     0.14440
H1873       H  0.30770316  0.09515924  0.23155232     0.14460
C1874       C  0.36960056  0.10065433  0.25101122    -0.24490
H1875       H  0.30674643  0.97305175  0.26562616     0.04680
H1876       H  0.26980117  0.99197597  0.25520750     0.07900
H1877       H  0.28208442  0.98958752  0.29673360     0.07900
H1878       H  0.39165073  0.09077740  0.23969498     0.07890
H1879       H  0.37604468  0.11270141  0.27326774     0.07890
H1880       H  0.35821994  0.11837290  0.23450697     0.04660
C1881       C  0.65925474  0.96894925  0.28177624    -0.21140
C1882       C  0.64393464  0.99869526  0.27642775    -0.07710
C1883       C  0.66256024  0.02310285  0.26330030     0.13160
C1884       C  0.69403257  0.01647026  0.25286760    -0.21190
C1885       C  0.70959664  0.98701201  0.25817530    -0.07710
C1886       C  0.69202508  0.96320071  0.27400999     0.13150
C1887       C  0.70663732  0.93117033  0.28221940    -0.24540
H1888       H  0.64536039  0.94970636  0.29090078     0.14440
H1889       H  0.70674702  0.03481914  0.24062605     0.14460
C1890       C  0.64922616  0.05665831  0.26005239    -0.24490
H1891       H  0.70398054  0.92656139  0.30814518     0.04680
H1892       H  0.73238676  0.92925191  0.27644436     0.07900
H1893       H  0.69420334  0.91271654  0.26902656     0.07900
H1894       H  0.64009876  0.06485093  0.28349114     0.07890
H1895       H  0.62969973  0.05844136  0.24237880     0.07890
H1896       H  0.66777948  0.07312116  0.25208905     0.04660
C1897       C  0.35784610  0.98986708  0.14003439    -0.21140
C1898       C  0.37050366  0.01189356  0.11842901    -0.07710
C1899       C  0.36677661  0.04481899  0.12574966     0.13160
C1900       C  0.35227359  0.05370344  0.15475499    -0.21190
C1901       C  0.35032169  0.03076439  0.17881093    -0.07710
C1902       C  0.34426188  0.00011185  0.16877986     0.13150
C1903       C  0.32768010  0.97727791  0.19007415    -0.24540
H1904       H  0.35501464  0.96557710  0.13290478     0.14440
H1905       H  0.35030223  0.07839104  0.16117191     0.14460
C1906       C  0.37640044  0.07034119  0.10248196    -0.24490
H1907       H  0.30663935  0.96823010  0.17761825     0.04680
H1908       H  0.31926433  0.98910798  0.21203748     0.07900
H1909       H  0.34427637  0.95718627  0.19657783     0.07900
H1910       H  0.36268434  0.06933757  0.08010316     0.07890
H1911       H  0.40228659  0.06740329  0.09709031     0.07890
H1912       H  0.37175065  0.09437355  0.11214315     0.04660
C1913       C  0.58988111  0.92604857  0.12041859    -0.21140
C1914       C  0.59332018  0.93654780  0.15156651    -0.07710
C1915       C  0.62451675  0.93929088  0.16382542     0.13160
C1916       C  0.64955271  0.94338597  0.14230133    -0.21190
C1917       C  0.64326697  0.94292415  0.10964377    -0.07710
C1918       C  0.61554139  0.92801867  0.09923974     0.13150
C1919       C  0.61119226  0.91771451  0.06543242    -0.24540
H1920       H  0.56643756  0.92128841  0.11125357     0.14440
H1921       H  0.67209218  0.95168255  0.15088289     0.14460
C1922       C  0.63083679  0.94277347  0.19884648    -0.24490
H1923       H  0.60412492  0.89268243  0.06535574     0.04680
H1924       H  0.63364427  0.91908384  0.05145891     0.07900
H1925       H  0.59217779  0.93265713  0.05375278     0.07900
H1926       H  0.60899548  0.93919576  0.21329459     0.07890
H1927       H  0.63969791  0.96668309  0.20355427     0.07890
H1928       H  0.64924730  0.92477252  0.20658225     0.04660
C1929       C  0.64988204  0.27771642  0.98542669    -0.21140
C1930       C  0.63272357  0.28799329  0.01240425    -0.07710
C1931       C  0.64956406  0.29119683  0.04109666     0.13160
C1932       C  0.68276033  0.28346379  0.04213253    -0.21190
C1933       C  0.69953020  0.27106996  0.01551773    -0.07710
C1934       C  0.68255569  0.26906033  0.98653487     0.13150
C1935       C  0.69751929  0.25739057  0.95609804    -0.24540
H1936       H  0.63710065  0.27465867  0.96333553     0.14440
H1937       H  0.69541396  0.28625225  0.06422144     0.14460
C1938       C  0.63221740  0.30108900  0.07092571    -0.24490
H1939       H  0.69390845  0.27564018  0.93708911     0.04680
H1940       H  0.68607986  0.23541257  0.94872262     0.07900
H1941       H  0.72331939  0.25238455  0.95819266     0.07900
H1942       H  0.61383126  0.28372940  0.07691168     0.07890
H1943       H  0.62046056  0.32478705  0.06721528     0.07890
H1944       H  0.64871409  0.30233351  0.09145087     0.04660
C1945       C  0.33171223  0.32305436  0.98454685    -0.21140
C1946       C  0.35507409  0.31908305  0.96038301    -0.07710
C1947       C  0.34549093  0.30079253  0.93404168     0.13160
C1948       C  0.31455264  0.28640385  0.93417450    -0.21190
C1949       C  0.29429885  0.28600220  0.96166422    -0.07710
C1950       C  0.30532158  0.30366780  0.98769583     0.13150
C1951       C  0.29263754  0.30043096  0.02087037    -0.24540
H1952       H  0.33666334  0.33786194  0.00467131     0.14440
H1953       H  0.30695525  0.27418513  0.91324967     0.14460
C1954       C  0.36800985  0.29544959  0.90662534    -0.24490
H1955       H  0.28486739  0.32391677  0.03012593     0.04680
H1956       H  0.31183574  0.29042976  0.03658005     0.07900
H1957       H  0.27295300  0.28434367  0.02210603     0.07900
H1958       H  0.39008162  0.28269094  0.91504014     0.07890
H1959       H  0.37431176  0.31855018  0.89597864     0.07890
H1960       H  0.35716306  0.28110390  0.88786445     0.04660
C1961       C  0.47854924  0.30286359  0.84126990    -0.21140
C1962       C  0.50898803  0.29974101  0.85493245    -0.07710
C1963       C  0.53458355  0.28797563  0.83562295     0.13160
C1964       C  0.52871183  0.27734389  0.80466957    -0.21190
C1965       C  0.49825933  0.27977330  0.79098555    -0.07710
C1966       C  0.47292535  0.29346326  0.80961548     0.13150
C1967       C  0.43930285  0.29729626  0.79778726    -0.24540
H1968       H  0.45859238  0.31091428  0.85593134     0.14440
H1969       H  0.54841471  0.26780914  0.79053674     0.14460
C1970       C  0.56858379  0.28692536  0.84740536    -0.24490
H1971       H  0.42327258  0.28343371  0.81324698     0.04680
H1972       H  0.43693365  0.28895803  0.77328229     0.07900
H1973       H  0.43144781  0.32262240  0.79856319     0.07900
H1974       H  0.57188382  0.26954054  0.86715057     0.07890
H1975       H  0.57481613  0.31074985  0.85561329     0.07890
H1976       H  0.58574521  0.27990397  0.82832896     0.04660
C1977       C  0.47629305  0.30378428  0.15661560    -0.21140
C1978       C  0.50124587  0.29839863  0.13458043    -0.07710
C1979       C  0.52730772  0.27842961  0.14444862     0.13160
C1980       C  0.52720421  0.26427493  0.17551837    -0.21190
C1981       C  0.50159629  0.26943216  0.19727115    -0.07710
C1982       C  0.47534614  0.28886925  0.18659712     0.13150
C1983       C  0.44471189  0.29334525  0.20513134    -0.24540
H1984       H  0.45557178  0.31819151  0.14930078     0.14440
H1985       H  0.54732033  0.24914345  0.18286651     0.14460
C1986       C  0.55422443  0.27069509  0.12178716    -0.24490
H1987       H  0.43840189  0.31893670  0.20725747     0.04680
H1988       H  0.44607436  0.28306596  0.22932083     0.07900
H1989       H  0.42511876  0.28213300  0.19222684     0.07900
H1990       H  0.56570042  0.29283091  0.11429997     0.07890
H1991       H  0.54495006  0.25886636  0.10047165     0.07890
H1992       H  0.57266234  0.25464798  0.13294110     0.04660
C1993       C  0.42026562  0.16509264  0.13962469    -0.21140
C1994       C  0.44242722  0.18620613  0.12799473    -0.07710
C1995       C  0.47482952  0.18216173  0.13618797     0.13160
C1996       C  0.48535811  0.15380850  0.15043229    -0.21190
C1997       C  0.46388352  0.12972198  0.15599244    -0.07710
C1998       C  0.43078979  0.13682970  0.15436960     0.13150
C1999       C  0.40683386  0.11518555  0.16844843    -0.24540
H2000       H  0.39516706  0.16902705  0.13414359     0.14440
H2001       H  0.51073942  0.14935481  0.15404664     0.14460
C2002       C  0.49859715  0.20619751  0.12636542    -0.24490
H2003       H  0.38219567  0.12569401  0.16703783     0.04680
H2004       H  0.41268904  0.11079607  0.19382222     0.07900
H2005       H  0.40744739  0.09249470  0.15582828     0.07900
H2006       H  0.49028548  0.22938904  0.13569974     0.07890
H2007       H  0.50020999  0.20799373  0.10006155     0.07890
H2008       H  0.52283167  0.20023352  0.13581209     0.04660
C2009       C  0.33564065  0.20891232  0.00161317    -0.21140
C2010       C  0.33684672  0.21976595  0.97003677    -0.07710
C2011       C  0.33396515  0.19706059  0.94612223     0.13160
C2012       C  0.34430676  0.16573677  0.95291776    -0.21190
C2013       C  0.35468429  0.15756430  0.98382708    -0.07710
C2014       C  0.34978664  0.17947686  0.00879085     0.13150
C2015       C  0.36113914  0.17280805  0.04246074    -0.24540
H2016       H  0.33289774  0.22601484  0.02054738     0.14440
H2017       H  0.34381886  0.14791832  0.93464153     0.14460
C2018       C  0.32431447  0.20713695  0.91313454    -0.24490
H2019       H  0.35882817  0.19419306  0.05747064     0.04680
H2020       H  0.38673327  0.16510182  0.04199819     0.07900
H2021       H  0.34717728  0.15427894  0.05427523     0.07900
H2022       H  0.34027206  0.22553349  0.90419512     0.07890
H2023       H  0.29989078  0.21759434  0.91335764     0.07890
H2024       H  0.32486998  0.18688487  0.89659475     0.04660
C2025       C  0.58587275  0.11677251  0.08096617    -0.21140
C2026       C  0.61453438  0.13096244  0.07300862    -0.07710
C2027       C  0.61678490  0.16396690  0.07425085     0.13160
C2028       C  0.58839519  0.18216008  0.07688128    -0.21190
C2029       C  0.55911024  0.16724819  0.07403188    -0.07710
C2030       C  0.55766235  0.13506192  0.08233426     0.13150
C2031       C  0.52675584  0.11876255  0.08742910    -0.24540
H2032       H  0.58490777  0.09120536  0.08239569     0.14440
H2033       H  0.58907706  0.20757749  0.07338866     0.14460
C2034       C  0.64801477  0.17977809  0.06877430    -0.24490
H2035       H  0.52794802  0.10503229  0.11010267     0.04680
H2036       H  0.52271667  0.10231992  0.06758925     0.07900
H2037       H  0.50616182  0.13583243  0.08914994     0.07900
H2038       H  0.65785036  0.17347678  0.04501571     0.07890
H2039       H  0.66538516  0.17190012  0.08737737     0.07890
H2040       H  0.64506112  0.20595782  0.06973597     0.04660
C2041       C  0.67188884  0.01384607  0.76293777    -0.21140
C2042       C  0.65429511  0.03541737  0.74354228    -0.07710
C2043       C  0.66734449  0.06542576  0.73815278     0.13160
C2044       C  0.69720281  0.07271591  0.75162200    -0.21190
C2045       C  0.71540233  0.05075737  0.77047738    -0.07710
C2046       C  0.70188381  0.02067216  0.77606099     0.13150
C2047       C  0.71861911  0.99400523  0.79411512    -0.24540
H2048       H  0.66149870  0.99140437  0.76887477     0.14440
H2049       H  0.70684278  0.09570761  0.74681948     0.14460
C2050       C  0.64912875  0.09029371  0.71894616    -0.24490
H2051       H  0.72102135  0.97277461  0.77892803     0.04680
H2052       H  0.70466779  0.98759345  0.81543297     0.07900
H2053       H  0.74257490  0.99966541  0.80165756     0.07900
H2054       H  0.62587011  0.09618745  0.73058448     0.07890
H2055       H  0.64478819  0.08128829  0.69470738     0.07890
H2056       H  0.66249670  0.11238301  0.71658163     0.04660
C2057       C  0.35430549  0.02995577  0.69648261    -0.21140
C2058       C  0.37272111  0.05728392  0.69767024    -0.07710
C2059       C  0.35677926  0.08395773  0.71188961     0.13160
C2060       C  0.32545090  0.08105027  0.72645634    -0.21190
C2061       C  0.31003445  0.05151047  0.72963993    -0.07710
C2062       C  0.32627491  0.02569093  0.71429202     0.13150
C2063       C  0.31728153  0.99183069  0.71791359    -0.24540
H2064       H  0.36369040  0.00936568  0.68398648     0.14440
H2065       H  0.31365839  0.10175658  0.73667657     0.14460
C2066       C  0.37291577  0.11499854  0.71240008    -0.24490
H2067       H  0.31799770  0.98007053  0.69469950     0.04680
H2068       H  0.29346781  0.98938183  0.72798829     0.07900
H2069       H  0.33515781  0.97892468  0.73314100     0.07900
H2070       H  0.35752936  0.13363356  0.72366774     0.07890
H2071       H  0.39556478  0.11252448  0.72594360     0.07890
H2072       H  0.37824509  0.12270530  0.68766022     0.04660
C2073       C  0.48016763  0.18346953  0.73776142    -0.21140
C2074       C  0.50936706  0.17352198  0.72385869    -0.07710
C2075       C  0.53368596  0.19560948  0.72111943     0.13160
C2076       C  0.52869277  0.22642951  0.73283816    -0.21190
C2077       C  0.49955179  0.23667213  0.74679454    -0.07710
C2078       C  0.47499314  0.21448069  0.74952052     0.13150
C2079       C  0.44396411  0.22228692  0.76632890    -0.24540
H2080       H  0.46219041  0.16606347  0.74177357     0.14440
H2081       H  0.54792520  0.24279096  0.73128998     0.14460
C2082       C  0.56552775  0.18624239  0.70661951    -0.24490
H2083       H  0.42910602  0.20121527  0.76903527     0.04680
H2084       H  0.42965062  0.24038069  0.75311189     0.07900
H2085       H  0.44866754  0.23116761  0.79034352     0.07900
H2086       H  0.56194987  0.17803194  0.68194545     0.07890
H2087       H  0.57732936  0.16689833  0.72085799     0.07890
H2088       H  0.58177982  0.20638001  0.70562948     0.04660
C2089       C  0.55606653  0.88446349  0.74931011    -0.21140
C2090       C  0.53035520  0.89455831  0.72937016    -0.07710
C2091       C  0.50842768  0.87114618  0.72145984     0.13160
C2092       C  0.51083292  0.84070181  0.73529411    -0.21190
C2093       C  0.53676024  0.82930377  0.75393732    -0.07710
C2094       C  0.56004932  0.85224576  0.76067255     0.13150
C2095       C  0.58940822  0.84383781  0.77976196    -0.24540
H2096       H  0.57283903  0.90179319  0.75666992     0.14440
H2097       H  0.49157653  0.82562584  0.73078546     0.14460
C2098       C  0.48174776  0.87779119  0.69782781    -0.24490
H2099       H  0.58924213  0.85790983  0.80187856     0.04680
H2100       H  0.61095946  0.84928998  0.76556863     0.07900
H2101       H  0.59117988  0.81851471  0.78632687     0.07900
H2102       H  0.49155847  0.88832469  0.67569562     0.07890
H2103       H  0.46287795  0.89374485  0.70789082     0.07890
H2104       H  0.46978748  0.85589207  0.69111076     0.04660
C2105       C  0.43243034  0.16353999  0.84551455    -0.21140
C2106       C  0.46351658  0.16005584  0.83338078    -0.07710
C2107       C  0.48276124  0.18697936  0.83090687     0.13160
C2108       C  0.47188413  0.21454660  0.84598862    -0.21190
C2109       C  0.44769308  0.21176420  0.86864055    -0.07710
C2110       C  0.42372463  0.19068968  0.86215447     0.13150
C2111       C  0.39086313  0.19523783  0.87557894    -0.24540
H2112       H  0.41640681  0.14408537  0.84503902     0.14440
H2113       H  0.48782052  0.23400282  0.84770036     0.14460
C2114       C  0.51593888  0.18626142  0.81682268    -0.24490
H2115       H  0.37531507  0.17584509  0.86857160     0.04680
H2116       H  0.38028284  0.21790133  0.86620570     0.07900
H2117       H  0.39151890  0.19583129  0.90186354     0.07900
H2118       H  0.51553067  0.17772002  0.79211694     0.07890
H2119       H  0.53210833  0.17063877  0.83140054     0.07890
H2120       H  0.52620659  0.21006500  0.81621760     0.04660
C2121       C  0.34231603  0.05105559  0.79927320    -0.21140
C2122       C  0.35539493  0.07993047  0.79169539    -0.07710
C2123       C  0.35307577  0.10286744  0.81570072     0.13160
C2124       C  0.35461585  0.09244734  0.84769571    -0.21190
C2125       C  0.35607063  0.05967243  0.85402190    -0.07710
C2126       C  0.35030065  0.03840086  0.82898625     0.13150
C2127       C  0.35880486  0.00326817  0.83172854    -0.24540
H2128       H  0.33970663  0.03445224  0.78037608     0.14440
H2129       H  0.35437706  0.10926530  0.86692678     0.14460
C2130       C  0.35028018  0.13733265  0.80722500    -0.24490
H2131       H  0.35890468  0.99163440  0.80819235     0.04680
H2132       H  0.34192728  0.99062568  0.84715124     0.07900
H2133       H  0.38326086  0.99990008  0.84157551     0.07900
H2134       H  0.32818797  0.14789859  0.81797299     0.07890
H2135       H  0.34906173  0.14089669  0.78104260     0.07890
H2136       H  0.37110996  0.14974289  0.81614033     0.04660
C2137       C  0.61096992  0.98571645  0.87484049    -0.21140
C2138       C  0.57916964  0.98907959  0.88476340    -0.07710
C2139       C  0.57158316  0.00996161  0.90949284     0.13160
C2140       C  0.59156917  0.03478537  0.91463126    -0.21190
C2141       C  0.62152843  0.03595853  0.89928453    -0.07710
C2142       C  0.63050418  0.01154809  0.87778965     0.13150
C2143       C  0.65915254  0.01295505  0.85619320    -0.24540
H2144       H  0.61711412  0.96809529  0.85707075     0.14440
H2145       H  0.58441613  0.05207473  0.93234353     0.14460
C2146       C  0.54089626  0.00853983  0.92804421    -0.24490
H2147       H  0.65164714  0.00882356  0.83132667     0.04680
H2148       H  0.67710388  0.99435415  0.86352905     0.07900
H2149       H  0.67006242  0.03644149  0.85612428     0.07900
H2150       H  0.52695720  0.98792327  0.92135983     0.07890
H2151       H  0.52605814  0.03044540  0.92368786     0.07890
H2152       H  0.54633347  0.00638473  0.95383356     0.04660
C2153       C  0.33049239  0.75898480  0.03843541    -0.21140
C2154       C  0.31837761  0.76708974  0.00741784    -0.07710
C2155       C  0.33868297  0.75808085  0.98180697     0.13160
C2156       C  0.36663157  0.73939884  0.98690950    -0.21190
C2157       C  0.38052505  0.73339345  0.01733448    -0.07710
C2158       C  0.36167837  0.74395104  0.04358446     0.13150
C2159       C  0.37439503  0.73959292  0.07673533    -0.24540
H2160       H  0.31614820  0.76462051  0.05902386     0.14440
H2161       H  0.37968760  0.73297604  0.96554940     0.14460
C2162       C  0.33466671  0.77115727  0.94858476    -0.24490
H2163       H  0.35708641  0.74881815  0.09473636     0.04680
H2164       H  0.39682007  0.75252365  0.07912991     0.07900
H2165       H  0.37938829  0.71406481  0.08172199     0.07900
H2166       H  0.35556016  0.78545324  0.94243636     0.07890
H2167       H  0.31327331  0.78686951  0.94590429     0.07890
H2168       H  0.33452354  0.75148508  0.93142506     0.04660
C2169       C  0.70730171  0.77559727  0.95761225    -0.21140
C2170       C  0.72115139  0.77818007  0.98800330    -0.07710
C2171       C  0.70372666  0.76585355  0.01427686     0.13160
C2172       C  0.67504258  0.75022782  0.00934364    -0.21190
C2173       C  0.66054606  0.74907308  0.97937071    -0.07710
C2174       C  0.67716621  0.76210601  0.95320172     0.13150
C2175       C  0.66233885  0.76281648  0.92061909    -0.24540
H2176       H  0.71997660  0.78435772  0.93706443     0.14440
H2177       H  0.66165135  0.74245434  0.02998946     0.14460
C2178       C  0.71273641  0.77058960  0.04833031    -0.24490
H2179       H  0.67826948  0.77341843  0.90254767     0.04680
H2180       H  0.63956109  0.77707818  0.92093009     0.07900
H2181       H  0.65750288  0.73833730  0.91330366     0.07900
H2182       H  0.73401436  0.78458579  0.05066874     0.07890
H2183       H  0.71681856  0.74731894  0.06042282     0.07890
H2184       H  0.69296685  0.78364383  0.06074375     0.04660
C2185       C  0.55727669  0.76274822  0.15660796    -0.21140
C2186       C  0.53122468  0.75151301  0.13964702    -0.07710
C2187       C  0.50141507  0.75078849  0.15542967     0.13160
C2188       C  0.49867268  0.76125231  0.18736289    -0.21190
C2189       C  0.52466649  0.77384842  0.20384534    -0.07710
C2190       C  0.55432469  0.77455525  0.18768592     0.13150
C2191       C  0.58320268  0.78825830  0.20251371    -0.24540
H2192       H  0.58010543  0.76410042  0.14452891     0.14440
H2193       H  0.47590128  0.75991370  0.19939088     0.14460
C2194       C  0.47228410  0.74031210  0.13831060    -0.24490
H2195       H  0.60436616  0.78667330  0.18654964     0.04680
H2196       H  0.58953518  0.77517195  0.22460590     0.07900
H2197       H  0.57834652  0.81364245  0.20734029     0.07900
H2198       H  0.47622431  0.71555426  0.13035346     0.07890
H2199       H  0.46748105  0.75591595  0.11728671     0.07890
H2200       H  0.45081272  0.74135174  0.15389289     0.04660
C2201       C  0.50207943  0.76710688  0.84329839    -0.21140
C2202       C  0.52794605  0.75382959  0.86123620    -0.07710
C2203       C  0.55850478  0.75472160  0.84670571     0.13160
C2204       C  0.56185753  0.76811351  0.81532406    -0.21190
C2205       C  0.53564373  0.78220701  0.79814292    -0.07710
C2206       C  0.50529614  0.78108170  0.81301922     0.13150
C2207       C  0.47481597  0.79320491  0.79756057    -0.24540
H2208       H  0.47805710  0.76673370  0.85277907     0.14440
H2209       H  0.58511788  0.76714571  0.80405449     0.14460
C2210       C  0.58738032  0.74122374  0.86385538    -0.24490
H2211       H  0.45734108  0.77416149  0.79665580     0.04680
H2212       H  0.47837546  0.80212322  0.77348374     0.07900
H2213       H  0.46396423  0.81276111  0.81126975     0.07900
H2214       H  0.58421168  0.71579181  0.86933022     0.07890
H2215       H  0.59065756  0.75412665  0.88637302     0.07890
H2216       H  0.60939130  0.74335079  0.84930568     0.04660
C2217       C  0.49106004  0.88805512  0.83408091    -0.21140
C2218       C  0.46004773  0.89955597  0.82788088    -0.07710
C2219       C  0.43339668  0.88127845  0.83397383     0.13160
C2220       C  0.43800403  0.85355494  0.85158474    -0.21190
C2221       C  0.46848615  0.84515998  0.86287409    -0.07710
C2222       C  0.49566408  0.86019848  0.85142251     0.13150
C2223       C  0.52902400  0.84826686  0.85967522    -0.24540
H2224       H  0.51133907  0.90190244  0.82730877     0.14440
H2225       H  0.41748514  0.84109105  0.86024972     0.14460
C2226       C  0.40013098  0.89254161  0.82475513    -0.24490
H2227       H  0.54736551  0.86406970  0.84994574     0.04680
H2228       H  0.53362201  0.82458492  0.84960360     0.07900
H2229       H  0.53214105  0.84634811  0.88575291     0.07900
H2230       H  0.39875368  0.89562217  0.79852062     0.07890
H2231       H  0.39406374  0.91548961  0.83624382     0.07890
H2232       H  0.38204134  0.87536549  0.83218392     0.04660
C2233       C  0.45667906  0.84907290  0.13124816    -0.21140
C2234       C  0.48938582  0.84961444  0.12442505    -0.07710
C2235       C  0.51149680  0.85283672  0.14951308     0.13160
C2236       C  0.49972808  0.86167313  0.17924014    -0.21190
C2237       C  0.46728535  0.86950082  0.18284860    -0.07710
C2238       C  0.44535961  0.85851117  0.16099405     0.13150
C2239       C  0.41012588  0.86109474  0.16787323    -0.24540
H2240       H  0.44006635  0.84373827  0.11270955     0.14440
H2241       H  0.51628106  0.86896998  0.19727022     0.14460
C2242       C  0.54719705  0.85060375  0.14476252    -0.24490
H2243       H  0.39608594  0.85052977  0.14875397     0.04680
H2244       H  0.40218504  0.88627430  0.17036274     0.07900
H2245       H  0.40497284  0.84815181  0.19033192     0.07900
H2246       H  0.55446470  0.86821572  0.12666690     0.07890
H2247       H  0.55462988  0.82652357  0.13695197     0.07890
H2248       H  0.56029896  0.85532733  0.16701614     0.04660
C2249       C  0.34961625  0.83742238  0.00436922    -0.21140
C2250       C  0.36460068  0.83352684  0.03364692    -0.07710
C2251       C  0.36498514  0.86020948  0.05322233     0.13160
C2252       C  0.36520553  0.89023023  0.03862575    -0.21190
C2253       C  0.36068952  0.89293914  0.00561479    -0.07710
C2254       C  0.35058771  0.86631902  0.98854040     0.13150
C2255       C  0.34357068  0.86692173  0.95317717    -0.24540
H2256       H  0.34621350  0.81715262  0.99011088     0.14440
H2257       H  0.36913840  0.91104396  0.05263267     0.14460
C2258       C  0.37022622  0.85608918  0.08823792    -0.24490
H2259       H  0.34012055  0.84294648  0.94369466     0.04680
H2260       H  0.36379912  0.87705833  0.93986591     0.07900
H2261       H  0.32112156  0.88072763  0.94819210     0.07900
H2262       H  0.39147698  0.84032971  0.09239025     0.07890
H2263       H  0.34928140  0.84490496  0.09922400     0.07890
H2264       H  0.37366989  0.87909812  0.09993309     0.04660
C2265       C  0.62090695  0.86665550  0.92059980    -0.21140
C2266       C  0.58847933  0.87605694  0.91919361    -0.07710
C2267       C  0.58058710  0.90836663  0.91641600     0.13160
C2268       C  0.60099056  0.92905357  0.93083447    -0.21190
C2269       C  0.63091248  0.91802363  0.94187048    -0.07710
C2270       C  0.64238549  0.88721756  0.93403067     0.13150
C2271       C  0.67552795  0.87499426  0.94274131    -0.24540
H2272       H  0.62759787  0.84172188  0.91895482     0.14440
H2273       H  0.59297414  0.95316457  0.93511686     0.14460
C2274       C  0.54838805  0.92012951  0.90462709    -0.24490
H2275       H  0.67946544  0.84972797  0.93640721     0.04680
H2276       H  0.67923884  0.87707154  0.96877195     0.07900
H2277       H  0.69359205  0.88874907  0.92976048     0.07900
H2278       H  0.53540130  0.93318488  0.92369172     0.07890
H2279       H  0.53350498  0.90063197  0.89697773     0.07890
H2280       H  0.55132114  0.93539793  0.88344094     0.04660
C2281       C  0.86856516  0.76748326  0.96168321    -0.21140
C2282       C  0.88301642  0.78546535  0.98533292    -0.07710
C2283       C  0.86291706  0.79714637  0.01008624     0.13160
C2284       C  0.82977952  0.79012835  0.01061682    -0.21190
C2285       C  0.81558441  0.77145342  0.98706635    -0.07710
C2286       C  0.83594492  0.76008930  0.96231482     0.13150
C2287       C  0.82394255  0.73959488  0.93624483    -0.24540
H2288       H  0.88335869  0.75814586  0.94253795     0.14440
H2289       H  0.81505576  0.79858405  0.03016543     0.14460
C2290       C  0.87648856  0.81595682  0.03657477    -0.24490
H2291       H  0.84252899  0.73451841  0.91791995     0.04680
H2292       H  0.80338199  0.75152967  0.92401649     0.07900
H2293       H  0.81713816  0.71649528  0.94636951     0.07900
H2294       H  0.88682269  0.83778585  0.02667896     0.07890
H2295       H  0.89541816  0.80161213  0.04907882     0.07890
H2296       H  0.85789045  0.82301470  0.05427162     0.04660
C2297       C  0.17579650  0.80085504  0.96107984    -0.21140
C2298       C  0.16467319  0.81259705  0.99020958    -0.07710
C2299       C  0.18646760  0.81047743  0.01624532     0.13160
C2300       C  0.21408583  0.79081900  0.01464470    -0.21190
C2301       C  0.22644003  0.77954079  0.98569599    -0.07710
C2302       C  0.20755178  0.78786030  0.95783111     0.13150
C2303       C  0.22005585  0.78775351  0.92443162    -0.24540
H2304       H  0.16033433  0.80309081  0.94050081     0.14440
H2305       H  0.22777311  0.78660189  0.03617822     0.14460
C2306       C  0.18126445  0.82868298  0.04663481    -0.24490
H2307       H  0.20898940  0.76923072  0.91026454     0.04680
H2308       H  0.24606405  0.78606186  0.92379120     0.07900
H2309       H  0.21369237  0.81064860  0.91252688     0.07900
H2310       H  0.17708222  0.81206010  0.06676114     0.07890
H2311       H  0.16107494  0.84632212  0.04489025     0.07890
H2312       H  0.20279540  0.84219330  0.05178363     0.04660
C2313       C  0.04133909  0.78839014  0.80031946    -0.21140
C2314       C  0.01007795  0.78574670  0.78840327    -0.07710
C2315       C  0.98465491  0.79617251  0.80883292     0.13160
C2316       C  0.99078276  0.80365819  0.84107796    -0.21190
C2317       C  0.02197639  0.80528149  0.85320036    -0.07710
C2318       C  0.04735392  0.79986009  0.83136064     0.13150
C2319       C  0.08054039  0.80905279  0.83986088    -0.24540
H2320       H  0.06128345  0.78319638  0.78451119     0.14440
H2321       H  0.97079497  0.80782380  0.85712823     0.14460
C2322       C  0.95076980  0.80030104  0.79762342    -0.24490
H2323       H  0.09836630  0.80092382  0.82183426     0.04680
H2324       H  0.08775320  0.79956255  0.86341861     0.07900
H2325       H  0.08094348  0.83522577  0.84107733     0.07900
H2326       H  0.93528571  0.78410362  0.81111353     0.07890
H2327       H  0.94850202  0.79588763  0.77196491     0.07890
H2328       H  0.94214191  0.82505486  0.80169481     0.04660
C2329       C  0.96460674  0.78645247  0.18012914    -0.21140
C2330       C  0.99180541  0.77182137  0.19527835    -0.07710
C2331       C  0.02083744  0.77198065  0.17903331     0.13160
C2332       C  0.02342662  0.79050586  0.15165323    -0.21190
C2333       C  0.99653607  0.80248322  0.13396548    -0.07710
C2334       C  0.96636465  0.79982089  0.14870051     0.13150
C2335       C  0.93669129  0.81225640  0.13225117    -0.24540
H2336       H  0.94208794  0.78758940  0.19278701     0.14440
H2337       H  0.04746774  0.79233263  0.14258262     0.14460
C2338       C  0.04921368  0.75152924  0.18976250    -0.24490
H2339       H  0.91513981  0.80892756  0.14720678     0.04680
H2340       H  0.93362334  0.79948052  0.10961848     0.07900
H2341       H  0.93863735  0.83789653  0.12702876     0.07900
H2342       H  0.04248695  0.72659814  0.18987222     0.07890
H2343       H  0.05658201  0.75680958  0.21409654     0.07890
H2344       H  0.07021710  0.75386783  0.17383588     0.04660
C2345       C  0.80518985  0.26372924  0.98430872    -0.21140
C2346       C  0.79280960  0.27436692  0.01364098    -0.07710
C2347       C  0.81381447  0.27224448  0.04024595     0.13160
C2348       C  0.84651073  0.26284981  0.03605167    -0.21190
C2349       C  0.85901628  0.25411318  0.00614919    -0.07710
C2350       C  0.83747886  0.25374689  0.98027997     0.13150
C2351       C  0.84877802  0.24324214  0.94785398    -0.24540
H2352       H  0.78946540  0.26325728  0.96403456     0.14440
H2353       H  0.86267962  0.26399733  0.05603633     0.14460
C2354       C  0.80283695  0.28009543  0.07339294    -0.24490
H2355       H  0.82889233  0.24324492  0.93046292     0.04680
H2356       H  0.85933515  0.21882402  0.94959297     0.07900
H2357       H  0.86698574  0.25930382  0.93842978     0.07900
H2358       H  0.77768675  0.28883231  0.07419403     0.07890
H2359       H  0.81785687  0.29862405  0.08331111     0.07890
H2360       H  0.80532503  0.25861870  0.08876279     0.04660
C2361       C  0.98061154  0.27096775  0.80277587    -0.21140
C2362       C  0.00769736  0.28635583  0.79147406    -0.07710
C2363       C  0.03599257  0.28311648  0.81012612     0.13160
C2364       C  0.03532978  0.26720274  0.84011232    -0.21190
C2365       C  0.00751225  0.25354267  0.85197146    -0.07710
C2366       C  0.98038725  0.25428974  0.83200789     0.13150
C2367       C  0.95027822  0.23864574  0.84246157    -0.24540
H2368       H  0.95913033  0.27223445  0.78865080     0.14440
H2369       H  0.05592028  0.26782340  0.85559168     0.14460
C2370       C  0.06687628  0.29698784  0.79943969    -0.24490
H2371       H  0.93146766  0.24065914  0.82392428     0.04680
H2372       H  0.94054521  0.24973438  0.86440797     0.07900
H2373       H  0.95562620  0.21312782  0.84721534     0.07900
H2374       H  0.06435881  0.32303657  0.79804963     0.07890
H2375       H  0.07423569  0.28770020  0.77597344     0.07890
H2376       H  0.08654925  0.29105946  0.81636970     0.04660
C2377       C  0.16415200  0.23064242  0.98830011    -0.21140
C2378       C  0.14055249  0.23792376  0.96540691    -0.07710
C2379       C  0.14849913  0.26031617  0.94158233     0.13160
C2380       C  0.17856906  0.27560331  0.94259504    -0.21190
C2381       C  0.20033599  0.27112539  0.96829857    -0.07710
C2382       C  0.19137960  0.24866382  0.99210129     0.13150
C2383       C  0.20696641  0.24493300  0.02412826    -0.24540
H2384       H  0.15854068  0.21391059  0.00714829     0.14440
H2385       H  0.18489908  0.29156751  0.92349290     0.14460
C2386       C  0.12514071  0.26793822  0.91535683    -0.24490
H2387       H  0.21254917  0.21964962  0.02944367     0.04680
H2388       H  0.19008272  0.25350974  0.04281746     0.07900
H2389       H  0.22878121  0.25817771  0.02589572     0.07900
H2390       H  0.10299611  0.27916176  0.92535514     0.07890
H2391       H  0.11909032  0.24582969  0.90317447     0.07890
H2392       H  0.13519112  0.28407479  0.89724962     0.04660
C2393       C  0.01285466  0.24830618  0.18635396    -0.21140
C2394       C  0.98796833  0.26902581  0.19644690    -0.07710
C2395       C  0.96095611  0.27237229  0.17595620     0.13160
C2396       C  0.96125809  0.25762253  0.14525036    -0.21190
C2397       C  0.98671949  0.23701663  0.13541073    -0.07710
C2398       C  0.01118840  0.23049438  0.15830194     0.13150
C2399       C  0.03609713  0.20421031  0.15336529    -0.24540
H2400       H  0.03354675  0.24484798  0.20148433     0.14440
H2401       H  0.94232602  0.26335053  0.12849225     0.14460
C2402       C  0.93218686  0.29223859  0.18602045    -0.24490
H2403       H  0.05134688  0.20036233  0.17473146     0.04680
H2404       H  0.05222694  0.20939411  0.13321095     0.07900
H2405       H  0.02404434  0.18178135  0.14888184     0.07900
H2406       H  0.93830254  0.31739637  0.18726197     0.07890
H2407       H  0.92359821  0.28514020  0.20974767     0.07890
H2408       H  0.91187742  0.28966675  0.16962181     0.04660
C2409       C  0.83533293  0.51343484  0.29781561    -0.21140
C2410       C  0.85824997  0.48832318  0.29445608    -0.07710
C2411       C  0.84682245  0.46081028  0.27978944     0.13160
C2412       C  0.81449575  0.46068341  0.26761661    -0.21190
C2413       C  0.79493201  0.48904219  0.26460050    -0.07710
C2414       C  0.80744560  0.51602054  0.27934573     0.13150
C2415       C  0.79477871  0.54922240  0.27316097    -0.24540
H2416       H  0.84221080  0.53457036  0.31002880     0.14440
H2417       H  0.80559961  0.43895951  0.25849654     0.14460
C2418       C  0.86862722  0.43214374  0.27632499    -0.24490
H2419       H  0.78972058  0.56131717  0.29596840     0.04680
H2420       H  0.77331247  0.55019808  0.25829245     0.07900
H2421       H  0.81328302  0.56268307  0.26045425     0.07900
H2422       H  0.87660187  0.42358610  0.30017777     0.07890
H2423       H  0.88981682  0.43823632  0.26194371     0.07890
H2424       H  0.85651076  0.41271632  0.26429603     0.04660
C2425       C  0.18467711  0.51342248  0.24463100    -0.21140
C2426       C  0.19849422  0.53969370  0.22976500    -0.07710
C2427       C  0.18024825  0.56872551  0.22990055     0.13160
C2428       C  0.14848515  0.56969946  0.24176728    -0.21190
C2429       C  0.13451754  0.54301144  0.25554656    -0.07710
C2430       C  0.15361798  0.51481272  0.25780451     0.13150
C2431       C  0.14043397  0.48537764  0.27259990    -0.24540
H2432       H  0.19807545  0.49115253  0.24522384     0.14440
H2433       H  0.13394781  0.59127127  0.23885671     0.14460
C2434       C  0.19326156  0.59932006  0.21806013    -0.24490
H2435       H  0.15843318  0.46543130  0.27298952     0.04680
H2436       H  0.11946446  0.47783466  0.25897160     0.07900
H2437       H  0.13305148  0.49024526  0.29751241     0.07900
H2438       H  0.21880488  0.59716005  0.21203736     0.07890
H2439       H  0.19072630  0.61732657  0.23698562     0.07890
H2440       H  0.17974247  0.60780734  0.19675798     0.04660
C2441       C  0.96290256  0.67925511  0.24692610    -0.21140
C2442       C  0.98942164  0.66218104  0.26062804    -0.07710
C2443       C  0.01805941  0.67852403  0.26327316     0.13160
C2444       C  0.01878431  0.71094727  0.25340919    -0.21190
C2445       C  0.99198249  0.72741315  0.23941092    -0.07710
C2446       C  0.96420081  0.71027590  0.23499769     0.13150
C2447       C  0.93566694  0.72370689  0.21673401    -0.24540
H2448       H  0.94040141  0.66793064  0.24410655     0.14440
H2449       H  0.04071883  0.72327402  0.25610634     0.14460
C2450       C  0.04773897  0.66197664  0.27600605    -0.24490
H2451       H  0.91588354  0.70699208  0.21606791     0.04680
H2452       H  0.94266148  0.72844986  0.19186772     0.07900
H2453       H  0.92586875  0.74591711  0.22689998     0.07900
H2454       H  0.05455726  0.64166574  0.26060962     0.07890
H2455       H  0.04334443  0.65327065  0.30059941     0.07890
H2456       H  0.06808379  0.67804519  0.27656689     0.04660
C2457       C  0.02971829  0.36037987  0.24976081    -0.21140
C2458       C  0.00399564  0.38167504  0.25688297    -0.07710
C2459       C  0.97283609  0.36999324  0.25418106     0.13160
C2460       C  0.96840205  0.33807508  0.24496296    -0.21190
C2461       C  0.99423808  0.31704406  0.23716165    -0.07710
C2462       C  0.02532774  0.32901491  0.23936261     0.13150
C2463       C  0.05416730  0.30923526  0.22922117    -0.24540
H2464       H  0.05370805  0.36905595  0.25050585     0.14440
H2465       H  0.94440634  0.32986738  0.24320536     0.14460
C2466       C  0.94409077  0.39157974  0.25963175    -0.24490
H2467       H  0.07665044  0.32187813  0.23245068     0.04680
H2468       H  0.05223150  0.30334670  0.20372216     0.07900
H2469       H  0.05605514  0.28689181  0.24304425     0.07900
H2470       H  0.94433821  0.41180541  0.24253411     0.07890
H2471       H  0.94440092  0.40063245  0.28429952     0.07890
H2472       H  0.92147851  0.37917356  0.25628752     0.04660
C2473       C  0.95091560  0.38006002  0.14711134    -0.21140
C2474       C  0.98008487  0.39121152  0.15779965    -0.07710
C2475       C  0.00591009  0.36889183  0.16417141     0.13160
C2476       C  0.00148310  0.33734755  0.15734751    -0.21190
C2477       C  0.97929040  0.33171771  0.13405575    -0.07710
C2478       C  0.95069121  0.34980524  0.13405856     0.13150
C2479       C  0.92239515  0.33857900  0.11634276    -0.24540
H2480       H  0.93012748  0.39586801  0.14493503     0.14440
H2481       H  0.02137791  0.32046326  0.16014723     0.14460
C2482       C  0.03969493  0.37758085  0.17182594    -0.24490
H2483       H  0.90093992  0.35393111  0.12089705     0.04680
H2484       H  0.91669532  0.31442304  0.12393888     0.07900
H2485       H  0.92794702  0.33764412  0.09060160     0.07900
H2486       H  0.04070376  0.38969775  0.19472716     0.07890
H2487       H  0.04907336  0.39288623  0.15256280     0.07890
H2488       H  0.05631413  0.35658717  0.17370299     0.04660
C2489       C  0.96940340  0.70410013  0.13938114    -0.21140
C2490       C  0.00236446  0.69936107  0.14419006    -0.07710
C2491       C  0.01405480  0.67298664  0.16195992     0.13160
C2492       C  0.99301217  0.64987464  0.17089686    -0.21190
C2493       C  0.96109308  0.65217415  0.16127769    -0.07710
C2494       C  0.94845712  0.68015352  0.14726391     0.13150
C2495       C  0.91359544  0.68385066  0.13912811    -0.24540
H2496       H  0.96069166  0.72443194  0.12555299     0.14440
H2497       H  0.00219311  0.62852748  0.18281653     0.14460
C2498       C  0.04915280  0.66654732  0.16804353    -0.24490
H2499       H  0.90772881  0.70735623  0.12814109     0.04680
H2500       H  0.89905147  0.68145642  0.16111288     0.07900
H2501       H  0.90712589  0.66532057  0.12209799     0.07900
H2502       H  0.06411046  0.68560523  0.15852037     0.07890
H2503       H  0.05705541  0.64409788  0.15658552     0.07890
H2504       H  0.05332308  0.66434654  0.19406845     0.04660
C2505       C  0.30319181  0.51436848  0.82303682    -0.21140
C2506       C  0.29771211  0.48868906  0.84359249    -0.07710
C2507       C  0.28212040  0.46303066  0.82943770     0.13160
C2508       C  0.27121868  0.46529508  0.79689722    -0.21190
C2509       C  0.26887667  0.49492594  0.78045360    -0.07710
C2510       C  0.28346383  0.52025509  0.79637529     0.13150
C2511       C  0.27486680  0.55449701  0.79028581    -0.24540
H2512       H  0.31497885  0.53445464  0.83293040     0.14440
H2513       H  0.26132717  0.44489569  0.78584683     0.14460
C2514       C  0.27516683  0.43432573  0.84921471    -0.24490
H2515       H  0.26441938  0.56484573  0.81233198     0.04680
H2516       H  0.25647836  0.55777965  0.77222876     0.07900
H2517       H  0.29635357  0.56784585  0.78428569     0.07900
H2518       H  0.25953967  0.44127952  0.86951934     0.07890
H2519       H  0.29782767  0.42339275  0.85844831     0.07890
H2520       H  0.26276903  0.41646064  0.83517283     0.04660
C2521       C  0.25257431  0.51319199  0.13133864    -0.21140
C2522       C  0.26878096  0.53950047  0.11940587    -0.07710
C2523       C  0.27195555  0.56537223  0.13975395     0.13160
C2524       C  0.25897930  0.56432605  0.17088584    -0.21190
C2525       C  0.24093691  0.53872980  0.18209666    -0.07710
C2526       C  0.23693581  0.51332675  0.16101437     0.13150
C2527       C  0.21552451  0.48625217  0.16796355    -0.24540
H2528       H  0.24851127  0.49372078  0.11545784     0.14440
H2529       H  0.26329270  0.58369944  0.18661054     0.14460
C2530       C  0.28832771  0.59443671  0.12823806    -0.24490
H2531       H  0.22919501  0.46336843  0.16619750     0.04680
H2532       H  0.19603618  0.48649327  0.15013517     0.07900
H2533       H  0.20443255  0.48741546  0.19163755     0.07900
H2534       H  0.27537395  0.60506712  0.10748406     0.07890
H2535       H  0.31321121  0.58792226  0.12106586     0.07890
H2536       H  0.28915610  0.61258576  0.14704516     0.04660
C2537       C  0.28765542  0.68241517  0.95505695    -0.21140
C2538       C  0.28593785  0.66240843  0.98172662    -0.07710
C2539       C  0.27699012  0.67631307  0.01100820     0.13160
C2540       C  0.26846928  0.70933623  0.01205987    -0.21190
C2541       C  0.26713251  0.72882431  0.98422894    -0.07710
C2542       C  0.27671295  0.71416209  0.95517043     0.13150
C2543       C  0.27302705  0.72947537  0.92289531    -0.24540
H2544       H  0.29454663  0.67189494  0.93253021     0.14440
H2545       H  0.26231472  0.71993800  0.03470926     0.14460
C2546       C  0.27631166  0.65640356  0.04083910    -0.24490
H2547       H  0.28503255  0.71540249  0.90387289     0.04680
H2548       H  0.28348632  0.75266948  0.92171706     0.07900
H2549       H  0.24762352  0.73100604  0.91650820     0.07900
H2550       H  0.30043548  0.64558474  0.04532847     0.07890
H2551       H  0.25912494  0.63729591  0.03821788     0.07890
H2552       H  0.26925679  0.67072964  0.06183403     0.04660
C2553       C  0.24827746  0.34284137  0.94882025    -0.21140
C2554       C  0.23477488  0.32352369  0.97281874    -0.07710
C2555       C  0.22775589  0.33834695  0.00249939     0.13160
C2556       C  0.23488811  0.37037706  0.00719556    -0.21190
C2557       C  0.24904382  0.38929103  0.98373042    -0.07710
C2558       C  0.25561178  0.37508109  0.95391696     0.13150
C2559       C  0.26973587  0.39394826  0.92718534    -0.24540
H2560       H  0.25395087  0.33230204  0.92603743     0.14440
H2561       H  0.22971296  0.38076599  0.03015137     0.14460
C2562       C  0.21374868  0.32109819  0.03056616    -0.24490
H2563       H  0.27277979  0.37975043  0.90526591     0.04680
H2564       H  0.29355228  0.40205848  0.93421945     0.07900
H2565       H  0.25374746  0.41476752  0.92159887     0.07900
H2566       H  0.23182547  0.30670028  0.04364425     0.07890
H2567       H  0.19412552  0.30642740  0.02278693     0.07890
H2568       H  0.20374362  0.33784400  0.04845920     0.04660
C2569       C  0.09897280  0.59176781  0.12623069    -0.21140
C2570       C  0.06766784  0.58932690  0.11496289    -0.07710
C2571       C  0.06031670  0.60034290  0.08385376     0.13160
C2572       C  0.08562608  0.60542455  0.06271879    -0.21190
C2573       C  0.11725978  0.59863098  0.07227789    -0.07710
C2574       C  0.12410282  0.59648395  0.10509737     0.13150
C2575       C  0.15751831  0.59623871  0.11821722    -0.24540
H2576       H  0.10443711  0.58640775  0.15097232     0.14440
H2577       H  0.08039229  0.60984861  0.03779029     0.14460
C2578       C  0.02655836  0.60401539  0.07181660    -0.24490
H2579       H  0.15906839  0.61491974  0.13639831     0.04680
H2580       H  0.17548365  0.60114674  0.09962255     0.07900
H2581       H  0.16356908  0.57291084  0.12951456     0.07900
H2582       H  0.01223811  0.61956128  0.08799024     0.07890
H2583       H  0.01568074  0.58060272  0.07020562     0.07890
H2584       H  0.02568454  0.61496854  0.04765729     0.04660
C2585       C  0.14284202  0.39746715  0.94979107    -0.21140
C2586       C  0.14748998  0.41001520  0.97994986    -0.07710
C2587       C  0.15444658  0.38919903  0.00619934     0.13160
C2588       C  0.15469435  0.35689793  0.00134175    -0.21190
C2589       C  0.14196662  0.34533949  0.97363840    -0.07710
C2590       C  0.14112649  0.36469543  0.94622915     0.13150
C2591       C  0.13339346  0.35084559  0.91463363    -0.24540
H2592       H  0.13899042  0.41325656  0.92972340     0.14440
H2593       H  0.15473025  0.34185516  0.02233666     0.14460
C2594       C  0.15786560  0.39983826  0.04033827    -0.24490
H2595       H  0.13034488  0.36920209  0.89595147     0.04680
H2596       H  0.11086173  0.33794613  0.91618238     0.07900
H2597       H  0.15326141  0.33463248  0.90719946     0.07900
H2598       H  0.13731218  0.41577348  0.04691634     0.07890
H2599       H  0.18068225  0.41175815  0.04367064     0.07890
H2600       H  0.15822030  0.37976919  0.05764288     0.04660
C2601       C  0.19397947  0.65188049  0.01280098    -0.21140
C2602       C  0.18633423  0.66222509  0.98178094    -0.07710
C2603       C  0.18477206  0.69479191  0.97469673     0.13160
C2604       C  0.18489276  0.71605545  0.99989646    -0.21190
C2605       C  0.18231357  0.70461823  0.03115464    -0.07710
C2606       C  0.19340071  0.67352911  0.03770088     0.13150
C2607       C  0.19762588  0.66226266  0.07152266    -0.24540
H2608       H  0.19796434  0.62685208  0.01787173     0.14440
H2609       H  0.17769452  0.74039014  0.99485743     0.14460
C2610       C  0.17975195  0.70771889  0.94167980    -0.24490
H2611       H  0.20715501  0.63744969  0.07255301     0.04680
H2612       H  0.17443581  0.66373253  0.08438785     0.07900
H2613       H  0.21479478  0.67729842  0.08372441     0.07900
H2614       H  0.15704548  0.72194419  0.94088617     0.07890
H2615       H  0.17932747  0.68913373  0.92339293     0.07890
H2616       H  0.19942379  0.72323850  0.93581032     0.04660
C2617       C  0.20047365  0.47325340  0.74276940    -0.21140
C2618       C  0.22075779  0.49869764  0.73587259    -0.07710
C2619       C  0.20613198  0.52420322  0.71789646     0.13160
C2620       C  0.17600859  0.52143491  0.70356671    -0.21190
C2621       C  0.15437707  0.49871225  0.71345164    -0.07710
C2622       C  0.16720505  0.47421616  0.73383546     0.13150
C2623       C  0.14544132  0.44994877  0.74728592    -0.24540
H2624       H  0.20995158  0.45352262  0.75687589     0.14440
H2625       H  0.16654690  0.54158014  0.68984603     0.14460
C2626       C  0.21671213  0.55760016  0.72032544    -0.24490
H2627       H  0.15852432  0.43268899  0.76305384     0.04680
H2628       H  0.13459045  0.43687297  0.72758320     0.07900
H2629       H  0.12613975  0.46175805  0.76146456     0.07900
H2630       H  0.24194559  0.55860819  0.72577535     0.07890
H2631       H  0.20287528  0.57002390  0.73927008     0.07890
H2632       H  0.21243444  0.57078525  0.69774681     0.04660
C2633       C  0.97553910  0.38792163  0.74734199    -0.21140
C2634       C  0.00343711  0.40425301  0.74004138    -0.07710
C2635       C  0.03273959  0.38662682  0.73981275     0.13160
C2636       C  0.03333186  0.35364313  0.74656617    -0.21190
C2637       C  0.00533221  0.33717336  0.75364392    -0.07710
C2638       C  0.97608993  0.35501790  0.75397761     0.13150
C2639       C  0.94530803  0.33954520  0.76219548    -0.24540
H2640       H  0.95301701  0.40128626  0.74867196     0.14440
H2641       H  0.05612769  0.34111895  0.74691123     0.14460
C2642       C  0.06363024  0.40282139  0.73395822    -0.24490
H2643       H  0.92454569  0.35659277  0.76092449     0.04680
H2644       H  0.94661506  0.32985650  0.78682505     0.07900
H2645       H  0.94101058  0.32015020  0.74543624     0.07900
H2646       H  0.06687777  0.42113330  0.75224330     0.07890
H2647       H  0.06324208  0.41417985  0.71000122     0.07890
H2648       H  0.08451273  0.38589578  0.73505582     0.04660
C2649       C  0.03431920  0.73126342  0.72525703    -0.21140
C2650       C  0.00799929  0.74127876  0.74382967    -0.07710
C2651       C  0.98276196  0.71970981  0.74734275     0.13160
C2652       C  0.98498788  0.68945024  0.73278010    -0.21190
C2653       C  0.01061941  0.68074400  0.71263884    -0.07710
C2654       C  0.03456897  0.70319444  0.70767026     0.13150
C2655       C  0.06084519  0.69764413  0.68342764    -0.24540
H2656       H  0.05412833  0.74676150  0.72268821     0.14440
H2657       H  0.96721922  0.67215032  0.73805940     0.14460
C2658       C  0.95351377  0.72797108  0.76656734    -0.24490
H2659       H  0.07601521  0.71849789  0.68083727     0.04680
H2660       H  0.05008947  0.69328871  0.65985503     0.07900
H2661       H  0.07677264  0.67721896  0.69020394     0.07900
H2662       H  0.94007186  0.74785218  0.75482549     0.07890
H2663       H  0.96048736  0.73408618  0.79108562     0.07890
H2664       H  0.93721946  0.70790227  0.76831053     0.04660
C2665       C  0.86394140  0.60263260  0.73765084    -0.21140
C2666       C  0.87706815  0.57597113  0.72162491    -0.07710
C2667       C  0.85787996  0.54943819  0.71930048     0.13160
C2668       C  0.82837539  0.54887205  0.73530548    -0.21190
C2669       C  0.81532454  0.57495291  0.75223901    -0.07710
C2670       C  0.83326298  0.60268267  0.75226429     0.13150
C2671       C  0.82065133  0.63207609  0.76861636    -0.24540
H2672       H  0.87886666  0.62268131  0.74100270     0.14440
H2673       H  0.81558839  0.52734985  0.73446729     0.14460
C2674       C  0.87011936  0.52020159  0.70222850    -0.24490
H2675       H  0.83844198  0.65087622  0.76846782     0.04680
H2676       H  0.81422616  0.62663904  0.79356228     0.07900
H2677       H  0.79891036  0.64165403  0.75670695     0.07900
H2678       H  0.89255518  0.51066144  0.71322848     0.07890
H2679       H  0.87467891  0.52616869  0.67686169     0.07890
H2680       H  0.85282033  0.50105218  0.70325989     0.04660
C2681       C  0.13505972  0.46752706  0.83695198    -0.21140
C2682       C  0.14305122  0.49593509  0.82171906    -0.07710
C2683       C  0.17538904  0.50046619  0.81311511     0.13160
C2684       C  0.19823300  0.47902962  0.82604011    -0.21190
C2685       C  0.18892171  0.46450538  0.85440639    -0.07710
C2686       C  0.15987678  0.44974847  0.85155895     0.13150
C2687       C  0.15713766  0.41583249  0.86049116    -0.24540
H2688       H  0.11071676  0.45990987  0.83752568     0.14440
H2689       H  0.22254607  0.48559870  0.82424921     0.14460
C2690       C  0.18643198  0.53059383  0.79784719    -0.24490
H2691       H  0.13212749  0.40852117  0.85807448     0.04680
H2692       H  0.16571502  0.41191532  0.88509485     0.07900
H2693       H  0.17256880  0.40114834  0.84451793     0.07900
H2694       H  0.17966768  0.55108344  0.81301961     0.07890
H2695       H  0.17547510  0.53385795  0.77411255     0.07890
H2696       H  0.21263175  0.53033986  0.79490760     0.04660
C2697       C  0.03233642  0.41234718  0.84234517    -0.21140
C2698       C  0.04326579  0.43885455  0.85833105    -0.07710
C2699       C  0.06504696  0.43459562  0.88366585     0.13160
C2700       C  0.07114528  0.40393815  0.89500108    -0.21190
C2701       C  0.05112017  0.37986878  0.88580309    -0.07710
C2702       C  0.03564895  0.38248570  0.85627439     0.13150
C2703       C  0.01799527  0.35593626  0.84195841    -0.24540
H2704       H  0.01781946  0.41519414  0.82112029     0.14440
H2705       H  0.08495546  0.40084974  0.91655065     0.14460
C2706       C  0.07812788  0.46168589  0.90197996    -0.24490
H2707       H  0.02347554  0.35466121  0.81623183     0.04680
H2708       H  0.99186671  0.36036776  0.84476117     0.07900
H2709       H  0.02507707  0.33290511  0.85317727     0.07900
H2710       H  0.05824816  0.47542699  0.91342498     0.07890
H2711       H  0.09164545  0.47747973  0.88616694     0.07890
H2712       H  0.09452493  0.45321299  0.92114580     0.04660
C2713       C  0.10304454  0.69459158  0.85119651    -0.21140
C2714       C  0.09877176  0.66226068  0.84873912    -0.07710
C2715       C  0.11227670  0.64126158  0.87199969     0.13160
C2716       C  0.12017953  0.65350463  0.90143972    -0.21190
C2717       C  0.11444275  0.68560148  0.90674984    -0.07710
C2718       C  0.11276452  0.70646008  0.88028242     0.13150
C2719       C  0.11203145  0.74156493  0.88450582    -0.24540
H2720       H  0.09458183  0.71069009  0.83252296     0.14440
H2721       H  0.12288453  0.63741979  0.92143134     0.14460
C2722       C  0.11451581  0.60596419  0.86749912    -0.24490
H2723       H  0.12858747  0.75253172  0.86728178     0.04680
H2724       H  0.11901879  0.74810790  0.90891356     0.07900
H2725       H  0.08726554  0.75064518  0.88033340     0.07900
H2726       H  0.12717881  0.60051403  0.84487461     0.07890
H2727       H  0.09045110  0.59607663  0.86722664     0.07890
H2728       H  0.12805180  0.59388009  0.88712526     0.04660
C2729       C  0.73267945  0.36738178  0.98116133    -0.21140
C2730       C  0.72511821  0.38554261  0.00829277    -0.07710
C2731       C  0.72557011  0.36936163  0.03797355     0.13160
C2732       C  0.73487297  0.33652737  0.03964998    -0.21190
C2733       C  0.74635565  0.31955464  0.01272173    -0.07710
C2734       C  0.74485069  0.33582672  0.98302666     0.13150
C2735       C  0.75807762  0.32128126  0.95308807    -0.24540
H2736       H  0.73295876  0.37943557  0.95822869     0.14440
H2737       H  0.73519852  0.32468546  0.06260319     0.14460
C2738       C  0.71853046  0.38716769  0.06804469    -0.24490
H2739       H  0.75356956  0.33671480  0.93188268     0.04680
H2740       H  0.74698001  0.29857903  0.94856930     0.07900
H2741       H  0.78431177  0.31784541  0.95531484     0.07900
H2742       H  0.69406334  0.39810081  0.06690298     0.07890
H2743       H  0.73600745  0.40600766  0.07091370     0.07890
H2744       H  0.72005213  0.37135947  0.08932883     0.04660
C2745       C  0.75157156  0.68652427  0.02312863    -0.21140
C2746       C  0.74156866  0.66912699  0.99646605    -0.07710
C2747       C  0.74346198  0.68411940  0.96636430     0.13160
C2748       C  0.75589553  0.71497178  0.96384383    -0.21190
C2749       C  0.76949765  0.73014048  0.99028384    -0.07710
C2750       C  0.76748463  0.71509036  0.02021639     0.13150
C2751       C  0.78325831  0.72841365  0.04923597    -0.24540
H2752       H  0.75005451  0.67590213  0.04667320     0.14440
H2753       H  0.75574111  0.72695295  0.94094112     0.14460
C2754       C  0.73350295  0.66731234  0.93704300    -0.24490
H2755       H  0.77933471  0.71371511  0.07087723     0.04680
H2756       H  0.77457961  0.75268622  0.05410259     0.07900
H2757       H  0.80924792  0.72985929  0.04545195     0.07900
H2758       H  0.70804087  0.66120291  0.93913148     0.07890
H2759       H  0.74849603  0.64536303  0.93444050     0.07890
H2760       H  0.73641447  0.68214137  0.91530088     0.04660
C2761       C  0.74397057  0.47654073  0.15761378    -0.21140
C2762       C  0.73095440  0.50647580  0.14769640    -0.07710
C2763       C  0.72872148  0.52990834  0.17165409     0.13160
C2764       C  0.74226670  0.52446027  0.20208394    -0.21190
C2765       C  0.75398640  0.49469288  0.21313888    -0.07710
C2766       C  0.75408296  0.47005671  0.18997931     0.13150
C2767       C  0.76604317  0.43714097  0.19849636    -0.24540
H2768       H  0.74733560  0.45841132  0.13982878     0.14440
H2769       H  0.74287244  0.54423914  0.21780802     0.14460
C2770       C  0.71205288  0.56167870  0.16532811    -0.24490
H2771       H  0.76544328  0.42117574  0.17775991     0.04680
H2772       H  0.75136462  0.42689118  0.21755074     0.07900
H2773       H  0.79093117  0.43754230  0.20674742     0.07900
H2774       H  0.68767956  0.55809088  0.15611892     0.07890
H2775       H  0.72549632  0.57606765  0.14808131     0.07890
H2776       H  0.70953515  0.57581338  0.18733495     0.04660
C2777       C  0.77396344  0.52711201  0.84474449    -0.21140
C2778       C  0.75827929  0.54838596  0.86564688    -0.07710
C2779       C  0.75029287  0.57902981  0.85336125     0.13160
C2780       C  0.75853127  0.58726502  0.82124366    -0.21190
C2781       C  0.77546296  0.56592639  0.80088828    -0.07710
C2782       C  0.78303282  0.53526968  0.81353212     0.13150
C2783       C  0.80002308  0.50997522  0.79436483    -0.24540
H2784       H  0.77993497  0.50332428  0.85316382     0.14440
H2785       H  0.75177378  0.61055623  0.81197315     0.14460
C2786       C  0.73390222  0.60318197  0.87417746    -0.24490
H2787       H  0.82463284  0.51712560  0.78902404     0.04680
H2788       H  0.78644971  0.50550358  0.77241723     0.07900
H2789       H  0.80232137  0.48706378  0.80750305     0.07900
H2790       H  0.74905495  0.60719552  0.89518254     0.07890
H2791       H  0.71048779  0.59452260  0.88220589     0.07890
H2792       H  0.72973281  0.62611585  0.86143718     0.04660
C2793       C  0.86686158  0.56643245  0.88252752    -0.21140
C2794       C  0.88622792  0.55456927  0.90738700    -0.07710
C2795       C  0.91514547  0.56931632  0.91413840     0.13160
C2796       C  0.92243487  0.59667469  0.89738158    -0.21190
C2797       C  0.90864228  0.60194223  0.86752055    -0.07710
C2798       C  0.87819037  0.58985792  0.86204604     0.13150
C2799       C  0.85921582  0.59894493  0.83303621    -0.24540
H2800       H  0.84381613  0.55652925  0.87811483     0.14440
H2801       H  0.94439771  0.60805779  0.90312948     0.14460
C2802       C  0.94022670  0.55457144  0.93606860    -0.24490
H2803       H  0.83539936  0.60842898  0.84067142     0.04680
H2804       H  0.85613006  0.57785783  0.81801984     0.07900
H2805       H  0.87113917  0.61735211  0.81870691     0.07900
H2806       H  0.94275323  0.52874428  0.93186280     0.07890
H2807       H  0.93397747  0.55896108  0.96133522     0.07890
H2808       H  0.96408779  0.56421742  0.93135897     0.04660
C2809       C  0.83193500  0.45757188  0.14972539    -0.21140
C2810       C  0.82508348  0.49022928  0.14875005    -0.07710
C2811       C  0.82141255  0.50714388  0.17709974     0.13160
C2812       C  0.83103171  0.49159046  0.20460896    -0.21190
C2813       C  0.85227048  0.46530724  0.20176454    -0.07710
C2814       C  0.84654192  0.44457476  0.17698829     0.13150
C2815       C  0.85909448  0.41095845  0.17860414    -0.24540
H2816       H  0.82839537  0.44373452  0.12882356     0.14440
H2817       H  0.83337980  0.50677704  0.22467096     0.14460
C2818       C  0.81385901  0.54242101  0.17834439    -0.24490
H2819       H  0.85274982  0.39774980  0.15705035     0.04680
H2820       H  0.84855613  0.39894455  0.19957229     0.07900
H2821       H  0.88545825  0.41031599  0.18111790     0.07900
H2822       H  0.79075967  0.54840948  0.16669287     0.07890
H2823       H  0.83306660  0.55543739  0.16624023     0.07890
H2824       H  0.81205005  0.55111096  0.20309216     0.04660
C2825       C  0.86651106  0.40154211  0.08935542    -0.21140
C2826       C  0.83868743  0.39815016  0.07146127    -0.07710
C2827       C  0.83700349  0.36950177  0.05566421     0.13160
C2828       C  0.86540010  0.35698087  0.04270521    -0.21190
C2829       C  0.89391919  0.37272934  0.04817608    -0.07710
C2830       C  0.89500224  0.39488662  0.07308884     0.13150
C2831       C  0.92351165  0.41464736  0.07958429    -0.24540
H2832       H  0.86718622  0.41982057  0.10679650     0.14440
H2833       H  0.86469098  0.33749490  0.02626551     0.14460
C2834       C  0.80550062  0.35699658  0.04690246    -0.24490
H2835       H  0.91880712  0.43163134  0.09912278     0.04680
H2836       H  0.92929394  0.42870427  0.05797357     0.07900
H2837       H  0.94451151  0.39947984  0.08635514     0.07900
H2838       H  0.79107593  0.37509857  0.03357184     0.07890
H2839       H  0.79250423  0.35049156  0.06892614     0.07890
H2840       H  0.80856386  0.33608195  0.03152205     0.04660
C2841       C  0.90468877  0.63077303  0.97622359    -0.21140
C2842       C  0.87499543  0.63935474  0.98903911    -0.07710
C2843       C  0.87235972  0.66553310  0.00896225     0.13160
C2844       C  0.89955120  0.67507599  0.02441780    -0.21190
C2845       C  0.92932697  0.66084848  0.01705564    -0.07710
C2846       C  0.93211314  0.63904391  0.99192245     0.13150
C2847       C  0.96413106  0.62583355  0.98063335    -0.24540
H2848       H  0.90622431  0.61255949  0.95857146     0.14440
H2849       H  0.89792589  0.69526922  0.04008762     0.14460
C2850       C  0.84105565  0.68259618  0.01463929    -0.24490
H2851       H  0.96164658  0.60951904  0.96062086     0.04680
H2852       H  0.97640233  0.61279504  0.00043115     0.07900
H2853       H  0.97930005  0.64502886  0.97185638     0.07900
H2854       H  0.83425978  0.67985724  0.04004307     0.07890
H2855       H  0.82193957  0.67341932  0.99944771     0.07890
H2856       H  0.84350597  0.70795049  0.00847345     0.04660
C2857       C  0.24966070  0.48313723  0.63538801    -0.21140
C2858       C  0.24516501  0.51373162  0.62179796    -0.07710
C2859       C  0.25110114  0.53956682  0.64188852     0.13160
C2860       C  0.26521679  0.53459423  0.67189133    -0.21190
C2861       C  0.26963228  0.50454436  0.68625435    -0.07710
C2862       C  0.26052568  0.47839419  0.66752743     0.13150
C2863       C  0.26323731  0.44504446  0.68026284    -0.24540
H2864       H  0.24631335  0.46279542  0.62054782     0.14440
H2865       H  0.27130631  0.55535629  0.68431974     0.14460
C2866       C  0.24453197  0.57354397  0.63136787    -0.24490
H2867       H  0.23937035  0.43451650  0.67993442     0.04680
H2868       H  0.27225972  0.44367569  0.70500729     0.07900
H2869       H  0.27986934  0.43079713  0.66506576     0.07900
H2870       H  0.26742137  0.58573751  0.62872644     0.07890
H2871       H  0.22964172  0.58621290  0.64928914     0.07890
H2872       H  0.23119909  0.57551711  0.60864438     0.04660
C2873       C  0.24527906  0.56420059  0.28703549    -0.21140
C2874       C  0.24993294  0.53359255  0.27419374    -0.07710
C2875       C  0.24051667  0.50787288  0.29384056     0.13160
C2876       C  0.22595297  0.51338428  0.32378694    -0.21190
C2877       C  0.22396114  0.54348411  0.33787184    -0.07710
C2878       C  0.23384692  0.56919455  0.31868207     0.13150
C2879       C  0.23361567  0.60190768  0.33227928    -0.24540
H2880       H  0.25125214  0.58439513  0.27238499     0.14440
H2881       H  0.22030898  0.49299735  0.33842660     0.14460
C2882       C  0.24651838  0.47386060  0.28507178    -0.24490
H2883       H  0.24175359  0.61958005  0.31454979     0.04680
H2884       H  0.24976148  0.60233224  0.35314626     0.07900
H2885       H  0.20900930  0.60896862  0.33989845     0.07900
H2886       H  0.26262230  0.46216842  0.30294088     0.07890
H2887       H  0.25791970  0.47138416  0.26170889     0.07890
H2888       H  0.22374625  0.46128650  0.28495156     0.04660
C2889       C  0.23448659  0.69090175  0.48709826    -0.21140
C2890       C  0.24182414  0.66958939  0.46276274    -0.07710
C2891       C  0.26197834  0.68004270  0.43785672     0.13160
C2892       C  0.27438969  0.71092350  0.43831259    -0.21190
C2893       C  0.26882454  0.73153662  0.46406380    -0.07710
C2894       C  0.24865415  0.72043015  0.48908730     0.13150
C2895       C  0.24394043  0.73681789  0.52027284    -0.24540
H2896       H  0.22076259  0.68261569  0.50732152     0.14440
H2897       H  0.28937791  0.71864744  0.41887032     0.14460
C2898       C  0.27173408  0.65782679  0.41159282    -0.24490
H2899       H  0.25551824  0.72234857  0.53952410     0.04680
H2900       H  0.21820991  0.73921646  0.52626776     0.07900
H2901       H  0.25409339  0.76032646  0.51989174     0.07900
H2902       H  0.25013620  0.65000853  0.39914826     0.07890
H2903       H  0.28500677  0.63680167  0.42160264     0.07890
H2904       H  0.28738878  0.66931523  0.39385075     0.04660
C2905       C  0.25094532  0.37283220  0.50043615    -0.21140
C2906       C  0.24257039  0.38823967  0.47171779    -0.07710
C2907       C  0.24329874  0.36893374  0.44403806     0.13160
C2908       C  0.25405844  0.33658442  0.44545034    -0.21190
C2909       C  0.26419866  0.32112989  0.47379772    -0.07710
C2910       C  0.25973646  0.33982089  0.50214345     0.13150
C2911       C  0.26101555  0.32609073  0.53513349    -0.24540
H2912       H  0.25048670  0.38661653  0.52201185     0.14440
H2913       H  0.25451123  0.32298401  0.42379414     0.14460
C2914       C  0.23210433  0.38225262  0.41237093    -0.24490
H2915       H  0.28143257  0.33507449  0.54848021     0.04680
H2916       H  0.26185057  0.30035462  0.53484296     0.07900
H2917       H  0.23884624  0.33299345  0.54822796     0.07900
H2918       H  0.24842804  0.40037243  0.40342003     0.07890
H2919       H  0.20762547  0.39290600  0.41490112     0.07890
H2920       H  0.23132891  0.36364676  0.39401858     0.04660
C2921       C  0.55275161  0.67855830  0.75057565    -0.21140
C2922       C  0.52263387  0.66801576  0.76056251    -0.07710
C2923       C  0.49836228  0.69169669  0.76567695     0.13160
C2924       C  0.50410308  0.72410261  0.75978851    -0.21190
C2925       C  0.53348057  0.73482585  0.74824522    -0.07710
C2926       C  0.55843266  0.71137903  0.74499423     0.13150
C2927       C  0.59125499  0.72119330  0.73586975    -0.24540
H2928       H  0.57167068  0.66103221  0.74604556     0.14440
H2929       H  0.48474901  0.74105209  0.76319249     0.14460
C2930       C  0.46578222  0.68278081  0.77721468    -0.24490
H2931       H  0.60814918  0.70049861  0.73351202     0.04680
H2932       H  0.60051288  0.73696823  0.75429750     0.07900
H2933       H  0.59010730  0.73429522  0.71293224     0.07900
H2934       H  0.46807974  0.66948961  0.80009651     0.07890
H2935       H  0.45424265  0.66787946  0.75939468     0.07890
H2936       H  0.44983460  0.70392656  0.78120954     0.04660
C2937       C  0.71418231  0.54246457  0.77122915    -0.21140
C2938       C  0.72139950  0.57130471  0.75625582    -0.07710
C2939       C  0.69586570  0.59454449  0.75403096     0.13160
C2940       C  0.66428967  0.58746414  0.76425153    -0.21190
C2941       C  0.65717323  0.55798697  0.77801400    -0.07710
C2942       C  0.68333516  0.53608743  0.78294638     0.13150
C2943       C  0.67857463  0.50502761  0.80005247    -0.24540
H2944       H  0.73279848  0.52423411  0.77330564     0.14440
H2945       H  0.64470214  0.60420898  0.75926557     0.14460
C2946       C  0.70130690  0.62660607  0.73990963    -0.24490
H2947       H  0.70151010  0.49142607  0.80351330     0.04680
H2948       H  0.66255904  0.48997547  0.78643650     0.07900
H2949       H  0.66802925  0.50960496  0.82390085     0.07900
H2950       H  0.70907275  0.62413600  0.71484714     0.07890
H2951       H  0.71964496  0.63846588  0.75395636     0.07890
H2952       H  0.67920433  0.64192647  0.74010201     0.04660
C2953       C  0.35770775  0.53345758  0.75638226    -0.21140
C2954       C  0.37714470  0.50625698  0.76283828    -0.07710
C2955       C  0.36431836  0.47689977  0.75456854     0.13160
C2956       C  0.33301758  0.47585085  0.74103979    -0.21190
C2957       C  0.31526608  0.50363941  0.73156807    -0.07710
C2958       C  0.32967412  0.53280155  0.73790797     0.13150
C2959       C  0.31795862  0.56365534  0.72322265    -0.24540
H2960       H  0.36754116  0.55627002  0.76119699     0.14440
H2961       H  0.32279083  0.45314835  0.73690247     0.14460
C2962       C  0.38405773  0.44682656  0.75912272    -0.24490
H2963       H  0.32124148  0.56255113  0.69707740     0.04680
H2964       H  0.33177744  0.58391200  0.73137144     0.07900
H2965       H  0.29288723  0.56909063  0.72950205     0.07900
H2966       H  0.39048240  0.44381540  0.78461176     0.07890
H2967       H  0.40624181  0.44779131  0.74466153     0.07890
H2968       H  0.37089665  0.42585824  0.75170970     0.04660
C2969       C  0.48433107  0.38316314  0.75402028    -0.21140
C2970       C  0.51283707  0.38953795  0.76979522    -0.07710
C2971       C  0.53621579  0.36452340  0.77287483     0.13160
C2972       C  0.53181609  0.33531650  0.75816002    -0.21190
C2973       C  0.50328902  0.32848315  0.74280434    -0.07710
C2974       C  0.47889397  0.35281794  0.74145114     0.13150
C2975       C  0.44722955  0.34741949  0.72641016    -0.24540
H2976       H  0.46672879  0.40228838  0.75045155     0.14440
H2977       H  0.55072022  0.31719519  0.75932504     0.14460
C2978       C  0.56623070  0.36851016  0.79191055    -0.24490
H2979       H  0.43290702  0.33203145  0.74169851     0.04680
H2980       H  0.45098094  0.33613166  0.70310896     0.07900
H2981       H  0.43308721  0.36989579  0.72285023     0.07900
H2982       H  0.55974323  0.37589576  0.81642515     0.07890
H2983       H  0.58144648  0.38644075  0.78074485     0.07890
H2984       H  0.58077031  0.34606999  0.79375829     0.04660
C2985       C  0.38059656  0.47614349  0.65166795    -0.21140
C2986       C  0.41120787  0.46554060  0.64224756    -0.07710
C2987       C  0.41469176  0.45154512  0.61206791     0.13160
C2988       C  0.39199145  0.45962916  0.58920080    -0.21190
C2989       C  0.36846309  0.48297214  0.59598124    -0.07710
C2990       C  0.36039077  0.48898773  0.62808227     0.13150
C2991       C  0.33386879  0.51173462  0.63756308    -0.24540
H2992       H  0.37663045  0.48315563  0.67615719     0.14440
H2993       H  0.39658485  0.45247453  0.56488523     0.14460
C2994       C  0.44469748  0.43442733  0.60095877    -0.24490
H2995       H  0.33932773  0.53616312  0.63000374     0.04680
H2996       H  0.33060326  0.51194007  0.66374050     0.07900
H2997       H  0.31146142  0.50459470  0.62641446     0.07900
H2998       H  0.46205128  0.43078851  0.62031981     0.07890
H2999       H  0.45616967  0.44835668  0.58178991     0.07890
H3000       H  0.43883463  0.41108435  0.59135450     0.04660
C3001       C  0.76678535  0.68688159  0.47500360    -0.21140
C3002       C  0.77268214  0.66648351  0.50111764    -0.07710
C3003       C  0.77390129  0.68063162  0.53152972     0.13160
C3004       C  0.76900772  0.71416072  0.53467672    -0.21190
C3005       C  0.76163432  0.73450053  0.50838612    -0.07710
C3006       C  0.76100667  0.71986865  0.47794116     0.13150
C3007       C  0.75333881  0.73804321  0.44782951    -0.24540
H3008       H  0.76558162  0.67651639  0.45160688     0.14440
H3009       H  0.77027646  0.72453883  0.55802777     0.14460
C3010       C  0.77895417  0.66036716  0.56082654    -0.24490
H3011       H  0.75222463  0.72240670  0.42687205     0.04680
H3012       H  0.77203482  0.75501642  0.44241833     0.07900
H3013       H  0.72957143  0.74991894  0.45000534     0.07900
H3014       H  0.80235680  0.64730105  0.55926929     0.07890
H3015       H  0.75962131  0.64320677  0.56293548     0.07890
H3016       H  0.77875329  0.67477039  0.58273885     0.04660
C3017       C  0.78642347  0.58797554  0.65642328    -0.21140
C3018       C  0.79112406  0.55632123  0.64699898    -0.07710
C3019       C  0.78428740  0.53262490  0.67031514     0.13160
C3020       C  0.76866643  0.54052445  0.69895806    -0.21190
C3021       C  0.76437982  0.57187425  0.70898518    -0.07710
C3022       C  0.77480262  0.59593990  0.68745286     0.13150
C3023       C  0.77280959  0.63032456  0.69559699    -0.24540
H3024       H  0.79019121  0.60664941  0.63907437     0.14440
H3025       H  0.76206481  0.52161076  0.71508097     0.14460
C3026       C  0.79076780  0.49785225  0.66429442    -0.24490
H3027       H  0.79700554  0.64010228  0.69438595     0.04680
H3028       H  0.76312102  0.63422388  0.71966552     0.07900
H3029       H  0.75702394  0.64336704  0.67836010     0.07900
H3030       H  0.80529166  0.49378735  0.64248428     0.07890
H3031       H  0.76780831  0.48581456  0.66198368     0.07890
H3032       H  0.80407328  0.48683872  0.68456844     0.04660
C3033       C  0.76965434  0.36909190  0.54190629    -0.21140
C3034       C  0.76509751  0.38940337  0.51547000    -0.07710
C3035       C  0.75127880  0.37722702  0.48780706     0.13160
C3036       C  0.74280017  0.34515698  0.48724898    -0.21190
C3037       C  0.74833866  0.32454679  0.51347089    -0.07710
C3038       C  0.76136200  0.33720809  0.54143612     0.13150
C3039       C  0.76565076  0.31824489  0.57182899    -0.24540
H3040       H  0.77852071  0.37865184  0.56386147     0.14440
H3041       H  0.73234160  0.33610749  0.46592998     0.14460
C3042       C  0.74447299  0.39832451  0.45931368    -0.24490
H3043       H  0.75065918  0.32922298  0.59083712     0.04680
H3044       H  0.79100644  0.31831621  0.57934514     0.07900
H3045       H  0.75880017  0.29335830  0.56962178     0.07900
H3046       H  0.76707487  0.40817199  0.45043421     0.07890
H3047       H  0.72767826  0.41807284  0.46599306     0.07890
H3048       H  0.73360704  0.38522999  0.43960993     0.04660
C3049       C  0.75554301  0.46982069  0.32197948    -0.21140
C3050       C  0.74259178  0.49753000  0.30660668    -0.07710
C3051       C  0.74348983  0.52598505  0.32398993     0.13160
C3052       C  0.76098811  0.52682304  0.35251896    -0.21190
C3053       C  0.77133554  0.49922026  0.36931269    -0.07710
C3054       C  0.76839338  0.47020521  0.35341082     0.13150
C3055       C  0.77838823  0.43970747  0.36983280    -0.24540
H3056       H  0.75533303  0.44766835  0.30936140     0.14440
H3057       H  0.76202927  0.54926407  0.36462563     0.14460
C3058       C  0.72473494  0.55557638  0.31432475    -0.24490
H3059       H  0.77466633  0.41903326  0.35445003     0.04680
H3060       H  0.76428830  0.43667519  0.39199167     0.07900
H3061       H  0.80411267  0.44008338  0.37596022     0.07900
H3062       H  0.69922397  0.55014555  0.31151180     0.07890
H3063       H  0.73437789  0.56605727  0.29238882     0.07890
H3064       H  0.72569755  0.57416475  0.33267732     0.04660
C3065       C  0.62704051  0.60419783  0.63861080    -0.21140
C3066       C  0.63872335  0.57914990  0.65806626    -0.07710
C3067       C  0.67057320  0.57914620  0.66874525     0.13160
C3068       C  0.69061986  0.60146538  0.65465205    -0.21190
C3069       C  0.68026303  0.61379316  0.62510679    -0.07710
C3070       C  0.64824298  0.62500432  0.62494805     0.13150
C3071       C  0.63541627  0.64801800  0.60015255    -0.24540
H3072       H  0.60250942  0.60516262  0.63063368     0.14440
H3073       H  0.71598043  0.59937198  0.65908202     0.14460
C3074       C  0.68447470  0.55226904  0.68838195    -0.24490
H3075       H  0.61012197  0.65478960  0.60510044     0.04680
H3076       H  0.63617395  0.63793840  0.57603408     0.07900
H3077       H  0.64907769  0.66963481  0.60042224     0.07900
H3078       H  0.68329763  0.52979798  0.67515529     0.07890
H3079       H  0.67144399  0.55019608  0.71118088     0.07890
H3080       H  0.70949183  0.55591112  0.69354067     0.04660
C3081       C  0.68483874  0.82834892  0.49240733    -0.21140
C3082       C  0.66351477  0.82477603  0.51813860    -0.07710
C3083       C  0.67457973  0.80503846  0.54355665     0.13160
C3084       C  0.70452395  0.78770083  0.54105515    -0.21190
C3085       C  0.72371923  0.78788684  0.51310701    -0.07710
C3086       C  0.71288777  0.80923107  0.48845495     0.13150
C3087       C  0.72896473  0.81211272  0.45654264    -0.24540
H3088       H  0.67700678  0.84321781  0.47245903     0.14440
H3089       H  0.71270775  0.77319480  0.56102366     0.14460
C3090       C  0.65432250  0.80145991  0.57290163    -0.24490
H3091       H  0.71388432  0.80181154  0.43797012     0.04680
H3092       H  0.75292384  0.80067304  0.45632902     0.07900
H3093       H  0.73168929  0.83735226  0.45003813     0.07900
H3094       H  0.63088958  0.79190175  0.56666827     0.07890
H3095       H  0.65027470  0.82488757  0.58411013     0.07890
H3096       H  0.66599760  0.78514238  0.59059572     0.04660
C3097       C  0.56098934  0.79317139  0.68778490    -0.21140
C3098       C  0.53450980  0.78127803  0.70485497    -0.07710
C3099       C  0.50421972  0.78489295  0.69011292     0.13160
C3100       C  0.50089888  0.80248523  0.66169854    -0.21190
C3101       C  0.52709620  0.81180385  0.64292881    -0.07710
C3102       C  0.55782904  0.80655347  0.65635554     0.13150
C3103       C  0.58707333  0.81406905  0.63739603    -0.24540
H3104       H  0.58435746  0.79114496  0.69867223     0.14440
H3105       H  0.47699368  0.80625975  0.65226844     0.14460
C3106       C  0.47466508  0.77031051  0.70372620    -0.24490
H3107       H  0.60924161  0.80870222  0.65113326     0.04680
H3108       H  0.58629966  0.83956499  0.63075676     0.07900
H3109       H  0.58802970  0.79972303  0.61545107     0.07900
H3110       H  0.46875570  0.77949498  0.72748006     0.07890
H3111       H  0.47818649  0.74433462  0.70529813     0.07890
H3112       H  0.45337341  0.77520022  0.68855806     0.04660
C3113       C  0.36685644  0.76609870  0.49936744    -0.21140
C3114       C  0.38479828  0.78446575  0.47812164    -0.07710
C3115       C  0.36913415  0.79505391  0.44992468     0.13160
C3116       C  0.33650382  0.78735895  0.44451010    -0.21190
C3117       C  0.31865014  0.76899654  0.46650591    -0.07710
C3118       C  0.33541120  0.75737498  0.49384264     0.13150
C3119       C  0.32046957  0.73763629  0.51952092    -0.24540
H3120       H  0.37738896  0.75875335  0.52181449     0.14440
H3121       H  0.32471925  0.79615870  0.42311231     0.14460
C3122       C  0.38662004  0.81420285  0.42565262    -0.24490
H3123       H  0.33796365  0.72928118  0.53774343     0.04680
H3124       H  0.31024020  0.71619918  0.50953920     0.07900
H3125       H  0.30298209  0.75225671  0.53288222     0.07900
H3126       H  0.40787938  0.80037787  0.41703059     0.07890
H3127       H  0.39440209  0.83638586  0.43654940     0.07890
H3128       H  0.37127349  0.82056868  0.40488633     0.04660
C3129       C  0.54710434  0.78222753  0.34209615    -0.21140
C3130       C  0.51978976  0.79243094  0.35954552    -0.07710
C3131       C  0.48997778  0.79165849  0.34419828     0.13160
C3132       C  0.48852673  0.78058699  0.31236995    -0.21190
C3133       C  0.51589305  0.76790962  0.29619471    -0.07710
C3134       C  0.54536224  0.76845079  0.31209493     0.13150
C3135       C  0.57535258  0.75376780  0.29792387    -0.24540
H3136       H  0.57043116  0.78296583  0.35304635     0.14440
H3137       H  0.46575840  0.78158006  0.30058783     0.14460
C3138       C  0.45988105  0.80158126  0.36147307    -0.24490
H3139       H  0.59636460  0.75607576  0.31362699     0.04680
H3140       H  0.58075923  0.76544893  0.27506712     0.07900
H3141       H  0.57216412  0.72817316  0.29425975     0.07900
H3142       H  0.46121620  0.82657633  0.36891007     0.07890
H3143       H  0.45692687  0.78627192  0.38285616     0.07890
H3144       H  0.43849797  0.79953915  0.34621602     0.04660
C3145       C  0.37217874  0.67520073  0.47277085    -0.21140
C3146       C  0.37509899  0.65299219  0.44885307    -0.07710
C3147       C  0.40520004  0.64850802  0.43402300     0.13160
C3148       C  0.43261675  0.65663799  0.45071324    -0.21190
C3149       C  0.42930623  0.66908802  0.48139244    -0.07710
C3150       C  0.39818072  0.67784711  0.49285437     0.13150
C3151       C  0.39123640  0.68432822  0.52757298    -0.24540
H3152       H  0.34853982  0.68148051  0.48177123     0.14440
H3153       H  0.45607810  0.65175640  0.44063409     0.14460
C3154       C  0.40845670  0.63182080  0.40277960    -0.24490
H3155       H  0.36569610  0.68123964  0.53345900     0.04680
H3156       H  0.39721714  0.70870962  0.53381611     0.07900
H3157       H  0.40500486  0.66710730  0.54280003     0.07900
H3158       H  0.38479097  0.62540781  0.39352370     0.07890
H3159       H  0.42368240  0.60993463  0.40564793     0.07890
H3160       H  0.41942546  0.64765160  0.38501869     0.04660
C3161       C  0.53187377  0.71010242  0.66673572    -0.21140
C3162       C  0.56148484  0.71272386  0.65194820    -0.07710
C3163       C  0.58384297  0.68826405  0.65865519     0.13160
C3164       C  0.57227502  0.65777868  0.66338039    -0.21190
C3165       C  0.53923755  0.65346952  0.66175870    -0.07710
C3166       C  0.51848826  0.68042776  0.66683139     0.13150
C3167       C  0.48255114  0.67912438  0.66921096    -0.24540
H3168       H  0.51581560  0.73046129  0.66668086     0.14440
H3169       H  0.58824528  0.63811884  0.66875389     0.14460
C3170       C  0.61878460  0.69481390  0.65872662    -0.24490
H3171       H  0.47074149  0.70300903  0.66969447     0.04680
H3172       H  0.47565060  0.66676600  0.69146262     0.07900
H3173       H  0.47304895  0.66703791  0.64816256     0.07900
H3174       H  0.62397976  0.71270263  0.67673954     0.07890
H3175       H  0.62587936  0.70461831  0.63527874     0.07890
H3176       H  0.63348546  0.67319981  0.66447777     0.04660
C3177       C  0.69294058  0.71915160  0.50623286    -0.21140
C3178       C  0.68282165  0.72256907  0.53786588    -0.07710
C3179       C  0.69105388  0.69706957  0.55787406     0.13160
C3180       C  0.68835288  0.66689010  0.54511048    -0.21190
C3181       C  0.68132930  0.66456553  0.51245404    -0.07710
C3182       C  0.68720447  0.69043618  0.49197224     0.13150
C3183       C  0.68400607  0.68908018  0.45625388    -0.24540
H3184       H  0.69354278  0.73986201  0.49096723     0.14440
H3185       H  0.69070314  0.64601588  0.56013904     0.14460
C3186       C  0.70029128  0.70247765  0.59173272    -0.24490
H3187       H  0.68663882  0.71262050  0.44480740     0.04680
H3188       H  0.66002473  0.68082916  0.44995241     0.07900
H3189       H  0.70275231  0.67286236  0.44624743     0.07900
H3190       H  0.72191018  0.71681067  0.59226334     0.07890
H3191       H  0.70572769  0.67975717  0.60445321     0.07890
H3192       H  0.68064442  0.71555779  0.60429093     0.04660
C3193       C  0.65458860  0.48460615  0.23030538    -0.21140
C3194       C  0.64180786  0.51560075  0.22434117    -0.07710
C3195       C  0.66060343  0.54084079  0.23354495     0.13160
C3196       C  0.69021884  0.53474652  0.24908892    -0.21190
C3197       C  0.70171957  0.50378583  0.25750946    -0.07710
C3198       C  0.68275140  0.47860766  0.24830082     0.13150
C3199       C  0.69061048  0.44550626  0.26007914    -0.24540
H3200       H  0.63975614  0.46485935  0.22513620     0.14440
H3201       H  0.70449891  0.55466700  0.25383800     0.14460
C3202       C  0.64861447  0.57446285  0.22811936    -0.24490
H3203       H  0.67377120  0.42824303  0.25076094     0.04680
H3204       H  0.68926621  0.44489670  0.28647452     0.07900
H3205       H  0.71500869  0.43794554  0.25293797     0.07900
H3206       H  0.62595696  0.57893661  0.24136577     0.07890
H3207       H  0.64430648  0.57865266  0.20233457     0.07890
H3208       H  0.66608662  0.59170035  0.23625800     0.04660
C3209       C  0.30971595  0.55480915  0.22433021    -0.21140
C3210       C  0.29206505  0.52730836  0.22538247    -0.07710
C3211       C  0.30551884  0.50070809  0.20818799     0.13160
C3212       C  0.33775618  0.50069826  0.19673333    -0.21190
C3213       C  0.35613295  0.52774582  0.19837149    -0.07710
C3214       C  0.33960922  0.55592572  0.20874725     0.13150
C3215       C  0.35452127  0.58768479  0.20569701    -0.24540
H3216       H  0.29925217  0.57635195  0.23422143     0.14440
H3217       H  0.34911115  0.47879305  0.18867484     0.14460
C3218       C  0.28768883  0.47111906  0.20283159    -0.24490
H3219       H  0.37755819  0.58619263  0.19256623     0.04680
H3220       H  0.33817298  0.60423084  0.19231025     0.07900
H3221       H  0.35867575  0.59739140  0.22968863     0.07900
H3222       H  0.28747645  0.46605330  0.17699167     0.07890
H3223       H  0.26270784  0.47331321  0.21098773     0.07890
H3224       H  0.29968397  0.45070000  0.21526903     0.04660
C3225       C  0.52228130  0.36032454  0.21471561    -0.21140
C3226       C  0.49529444  0.37927796  0.22281504    -0.07710
C3227       C  0.47300735  0.36563935  0.24406299     0.13160
C3228       C  0.47780537  0.33395379  0.25559238    -0.21190
C3229       C  0.50528971  0.31522852  0.24783400    -0.07710
C3230       C  0.52848345  0.32986067  0.22817198     0.13150
C3231       C  0.56181703  0.31588535  0.22451004    -0.24540
H3232       H  0.54097851  0.37127492  0.20101910     0.14440
H3233       H  0.45989601  0.32375900  0.27083407     0.14460
C3234       C  0.44467122  0.38516064  0.25574023    -0.24490
H3235       H  0.57610449  0.32942359  0.20709869     0.04680
H3236       H  0.56189639  0.29130498  0.21630272     0.07900
H3237       H  0.57415542  0.31688170  0.24774042     0.07900
H3238       H  0.42994297  0.39345575  0.23516054     0.07890
H3239       H  0.45281055  0.40597053  0.26887212     0.07890
H3240       H  0.42942926  0.37136032  0.27206598     0.04660
C3241       C  0.47918058  0.68027636  0.23813540    -0.21140
C3242       C  0.50563788  0.66071990  0.22944636    -0.07710
C3243       C  0.53598607  0.67429697  0.22984922     0.13160
C3244       C  0.53873692  0.70636534  0.23961979    -0.21190
C3245       C  0.51216418  0.72473807  0.25121698    -0.07710
C3246       C  0.48202242  0.71073681  0.25037384     0.13150
C3247       C  0.45216870  0.72707915  0.26279558    -0.24540
H3248       H  0.45559669  0.67060718  0.23749870     0.14440
H3249       H  0.56190227  0.71684862  0.23891837     0.14460
C3250       C  0.56533371  0.65489261  0.22098279    -0.24490
H3251       H  0.43095235  0.71229977  0.26064454     0.04680
H3252       H  0.44691895  0.74879860  0.24884148     0.07900
H3253       H  0.45490031  0.73189011  0.28841988     0.07900
H3254       H  0.56313903  0.64656694  0.19617144     0.07890
H3255       H  0.56810122  0.63412308  0.23728609     0.07890
H3256       H  0.58719410  0.66883048  0.22258196     0.04660
C3257       C  0.34079474  0.48953997  0.32421092    -0.21140
C3258       C  0.35632148  0.48598501  0.35389229    -0.07710
C3259       C  0.37068330  0.45582167  0.36138129     0.13160
C3260       C  0.37822344  0.43641412  0.33522233    -0.21190
C3261       C  0.37968895  0.45209389  0.30588726    -0.07710
C3262       C  0.35091417  0.46885529  0.30004800     0.13150
C3263       C  0.33878401  0.47325870  0.26737693    -0.24540
H3264       H  0.32442647  0.50937300  0.31899218     0.14440
H3265       H  0.38496166  0.41173884  0.33725158     0.14460
C3266       C  0.37725236  0.44458861  0.39468829    -0.24490
H3267       H  0.31314443  0.46812353  0.26726336     0.04680
H3268       H  0.35176537  0.45728389  0.25056008     0.07900
H3269       H  0.34225353  0.49818979  0.26029066     0.07900
H3270       H  0.35457483  0.44498708  0.40809215     0.07890
H3271       H  0.39497065  0.45935630  0.40634409     0.07890
H3272       H  0.38713750  0.42017654  0.39501337     0.04660
C3273       C  0.49160050  0.66329536  0.36644895    -0.21140
C3274       C  0.50735300  0.63970902  0.34900741    -0.07710
C3275       C  0.54092252  0.63715830  0.34800634     0.13160
C3276       C  0.55787199  0.65307487  0.37074657    -0.21190
C3277       C  0.54120094  0.67158398  0.39286383    -0.07710
C3278       C  0.50849622  0.67965674  0.38886764     0.13150
C3279       C  0.49134690  0.70415347  0.40911305    -0.24540
H3280       H  0.46589939  0.66629524  0.36518318     0.14440
H3281       H  0.58352499  0.64933867  0.37270712     0.14460
C3282       C  0.55834307  0.61625193  0.32433241    -0.24490
H3283       H  0.46571167  0.70708895  0.40267691     0.04680
H3284       H  0.50247981  0.72733707  0.40565207     0.07900
H3285       H  0.49279326  0.69723651  0.43460721     0.07900
H3286       H  0.55150017  0.62386952  0.29981922     0.07890
H3287       H  0.55229736  0.59117195  0.32796061     0.07890
H3288       H  0.58463888  0.61778038  0.32654521     0.04660
C3289       C  0.61510697  0.44843005  0.42985882    -0.21140
C3290       C  0.64723112  0.45438752  0.42439371    -0.07710
C3291       C  0.65654090  0.45689983  0.39245226     0.13160
C3292       C  0.63522609  0.47321883  0.37224887    -0.21190
C3293       C  0.60404904  0.48088528  0.38317053    -0.07710
C3294       C  0.59264669  0.46503791  0.41077837     0.13150
C3295       C  0.55799131  0.46562954  0.42048297    -0.24540
H3296       H  0.60790189  0.43923662  0.45286908     0.14440
H3297       H  0.64337881  0.48114019  0.34905388     0.14460
C3298       C  0.69051125  0.45058724  0.38226075    -0.24490
H3299       H  0.55401792  0.45030639  0.44167737     0.04680
H3300       H  0.54330603  0.45683391  0.40075974     0.07900
H3301       H  0.54987505  0.49002480  0.42676220     0.07900
H3302       H  0.70491588  0.44016920  0.40216898     0.07890
H3303       H  0.70119902  0.47301779  0.37439470     0.07890
H3304       H  0.69126335  0.43379217  0.36217750     0.04660
C3305       C  0.48008276  0.25207996  0.65612398    -0.21140
C3306       C  0.50870203  0.25131892  0.63802618    -0.07710
C3307       C  0.53468875  0.26719247  0.65114721     0.13160
C3308       C  0.53085338  0.28305299  0.68113048    -0.21190
C3309       C  0.50119019  0.28448823  0.69792308    -0.07710
C3310       C  0.47543364  0.26951016  0.68376063     0.13150
C3311       C  0.44191476  0.27110366  0.69672222    -0.24540
H3312       H  0.45953443  0.23960827  0.64814568     0.14440
H3313       H  0.55123348  0.29375888  0.69178661     0.14460
C3314       C  0.56607520  0.26740190  0.63384151    -0.24490
H3315       H  0.42607171  0.28404244  0.67945900     0.04680
H3316       H  0.43994458  0.28322744  0.71962411     0.07900
H3317       H  0.43315046  0.24682868  0.69979007     0.07900
H3318       H  0.56290217  0.27920573  0.61025597     0.07890
H3319       H  0.57528126  0.24273500  0.63040700     0.07890
H3320       H  0.58413391  0.28023466  0.64736439     0.04660
C3321       C  0.54040636  0.24969821  0.33782846    -0.21140
C3322       C  0.51292278  0.24545082  0.35638234    -0.07710
C3323       C  0.48297696  0.25070148  0.34116132     0.13160
C3324       C  0.48158287  0.26194708  0.30893596    -0.21190
C3325       C  0.50940009  0.26770679  0.29083794    -0.07710
C3326       C  0.53917555  0.25976036  0.30566718     0.13150
C3327       C  0.57065779  0.26169452  0.28879350    -0.24540
H3328       H  0.56355282  0.24621391  0.34905962     0.14440
H3329       H  0.45855539  0.26738477  0.29826766     0.14460
C3330       C  0.45253621  0.24723806  0.35975378    -0.24490
H3331       H  0.58475293  0.28060221  0.29934727     0.04680
H3332       H  0.56781030  0.26624852  0.26322998     0.07900
H3333       H  0.58422163  0.23874165  0.29130590     0.07900
H3334       H  0.45202236  0.26341596  0.38035041     0.07890
H3335       H  0.45108039  0.22251362  0.36862689     0.07890
H3336       H  0.43117136  0.25295990  0.34491592     0.04660
C3337       C  0.32584838  0.26499753  0.44439839    -0.21140
C3338       C  0.30804977  0.27027568  0.47309021    -0.07710
C3339       C  0.32099174  0.25435287  0.50041917     0.13160
C3340       C  0.34744970  0.23305696  0.49748537    -0.21190
C3341       C  0.36900257  0.23380467  0.47136959    -0.07710
C3342       C  0.35729527  0.25002192  0.44392296     0.13150
C3343       C  0.37731223  0.25105076  0.41426139    -0.24540
H3344       H  0.31576132  0.27349664  0.42216578     0.14440
H3345       H  0.35372088  0.21914051  0.51846255     0.14460
C3346       C  0.31069787  0.26186277  0.53394824    -0.24490
H3347       H  0.36451116  0.26381611  0.39459072     0.04680
H3348       H  0.38346361  0.22661599  0.40642651     0.07900
H3349       H  0.39959545  0.26352467  0.41906984     0.07900
H3350       H  0.28601118  0.25588422  0.53886996     0.07890
H3351       H  0.31432924  0.28711804  0.53836625     0.07890
H3352       H  0.32530445  0.24860322  0.55202259     0.04660
C3353       C  0.66421025  0.25380621  0.48433043    -0.21140
C3354       C  0.64671625  0.25328993  0.51292786    -0.07710
C3355       C  0.66176730  0.26358998  0.54076685     0.13160
C3356       C  0.69265576  0.27606069  0.53901500    -0.21190
C3357       C  0.70995006  0.27730860  0.51017728    -0.07710
C3358       C  0.69541238  0.26533076  0.48257243     0.13150
C3359       C  0.71177461  0.26603077  0.45066490    -0.24540
H3360       H  0.65241150  0.24717733  0.46262507     0.14440
H3361       H  0.70353108  0.28445725  0.56046952     0.14460
C3362       C  0.64494584  0.26150094  0.57238410    -0.24490
H3363       H  0.69684328  0.25610737  0.43172842     0.04680
H3364       H  0.73428232  0.25170411  0.45159467     0.07900
H3365       H  0.71670879  0.29066151  0.44364963     0.07900
H3366       H  0.64047005  0.23635009  0.57806138     0.07890
H3367       H  0.62171428  0.27481779  0.57155949     0.07890
H3368       H  0.65939102  0.27110890  0.59186708     0.04660
C3369       C  0.47738703  0.32892724  0.35117984    -0.21140
C3370       C  0.45325039  0.33339531  0.37405655    -0.07710
C3371       C  0.43085469  0.35772599  0.36838521     0.13160
C3372       C  0.44290458  0.38554619  0.35596485    -0.21190
C3373       C  0.47329240  0.38492838  0.34165273    -0.07710
C3374       C  0.48955229  0.35562276  0.33633799     0.13150
C3375       C  0.52182217  0.35291619  0.32034528    -0.24540
H3376       H  0.49326634  0.30847350  0.35333407     0.14440
H3377       H  0.43040974  0.40778747  0.36001983     0.14460
C3378       C  0.39869537  0.35686511  0.38385161    -0.24490
H3379       H  0.53089102  0.32798817  0.31905367     0.04680
H3380       H  0.53940283  0.36625987  0.33396290     0.07900
H3381       H  0.52037142  0.36244821  0.29570247     0.07900
H3382       H  0.39842347  0.37021534  0.40635097     0.07890
H3383       H  0.39315544  0.33198660  0.38951668     0.07890
H3384       H  0.37998133  0.36646246  0.36746923     0.04660
C3385       C  0.33717346  0.34930881  0.51784765    -0.21140
C3386       C  0.34135044  0.33251990  0.48929557    -0.07710
C3387       C  0.33850212  0.34965689  0.46043597     0.13160
C3388       C  0.34672389  0.38079158  0.46062356    -0.21190
C3389       C  0.34860948  0.39722817  0.48910622    -0.07710
C3390       C  0.34129112  0.38209130  0.51805193     0.13150
C3391       C  0.33862948  0.40009377  0.54859367    -0.24540
H3392       H  0.33726090  0.33653965  0.54034595     0.14440
H3393       H  0.34969392  0.39311322  0.43804640     0.14460
C3394       C  0.33584053  0.33437545  0.42863462    -0.24490
H3395       H  0.33268925  0.38440014  0.56899311     0.04680
H3396       H  0.31960086  0.41897102  0.54653097     0.07900
H3397       H  0.36171573  0.41091079  0.55357696     0.07900
H3398       H  0.31219670  0.32438431  0.42639274     0.07890
H3399       H  0.35518289  0.31617169  0.42563422     0.07890
H3400       H  0.33740651  0.35163184  0.40863787     0.04660
C3401       C  0.50582746  0.34081750  0.63557584    -0.21140
C3402       C  0.47252272  0.34517057  0.63483399    -0.07710
C3403       C  0.45750931  0.37007561  0.65162164     0.13160
C3404       C  0.47650571  0.39237234  0.66584843    -0.21190
C3405       C  0.50973016  0.39061705  0.66185004    -0.07710
C3406       C  0.52478650  0.36333198  0.64933955     0.13150
C3407       C  0.56062731  0.35947590  0.64800060    -0.24540
H3408       H  0.51713420  0.32225151  0.62153305     0.14440
H3409       H  0.46530932  0.41306302  0.67679001     0.14460
C3410       C  0.42160098  0.37420072  0.65243631    -0.24490
H3411       H  0.56847336  0.33745263  0.63573068     0.04680
H3412       H  0.57023929  0.35851331  0.67258165     0.07900
H3413       H  0.57091674  0.37972108  0.63506981     0.07900
H3414       H  0.41114150  0.35287302  0.66329493     0.07890
H3415       H  0.41199322  0.37739538  0.62801228     0.07890
H3416       H  0.41374544  0.39507996  0.66659775     0.04660
C3417       C  0.55809881  0.41428724  0.57558738    -0.21140
C3418       C  0.56899190  0.38394465  0.56701183    -0.07710
C3419       C  0.60146675  0.37486527  0.57098282     0.13160
C3420       C  0.62340343  0.39840998  0.57470441    -0.21190
C3421       C  0.61276577  0.43010474  0.57516675    -0.07710
C3422       C  0.57995505  0.43795724  0.57936499     0.13150
C3423       C  0.56777957  0.47127199  0.58583331    -0.24540
H3424       H  0.53280348  0.42059669  0.57484179     0.14440
H3425       H  0.64873575  0.39222902  0.57371382     0.14460
C3426       C  0.61355073  0.34101884  0.56920608    -0.24490
H3427       H  0.54173688  0.47222074  0.59082017     0.04680
H3428       H  0.57151862  0.48701044  0.56501967     0.07900
H3429       H  0.58020923  0.48047795  0.60685724     0.07900
H3430       H  0.62905889  0.33772689  0.54792298     0.07890
H3431       H  0.59365387  0.32449614  0.56820684     0.07890
H3432       H  0.62762889  0.33482194  0.59087704     0.04660
loop_ 
_geom_bond_atom_site_label_1 
_geom_bond_atom_site_label_2 
_geom_bond_distance 
_geom_bond_site_symmetry_2 
_ccdc_geom_bond_type 
N1            N2   1.321       .  A
N1            N7   1.313       .  A
N1          Mn30   2.183       .  S
N2            C9   1.350       .  A
N3            N5   1.311       .  A
N3            N4   1.297       .  A
N3          Mn19   2.109       .  S
N4           C10   1.337       .  A
N5            N6   1.318       .  A
N5          Mn30   2.195       .  S
N6           C10   1.353       .  A
N7            N8   1.310       .  A
N7          Mn19   2.174       .  S
N8            C9   1.344       .  A
C9         C3402   1.448       .  S
C10        C3386   1.443       .  S
N11          N17   1.308       .  A
N11          N12   1.308       .  A
N11         Mn41   2.121       .  S
N12          C20   1.337       .  A
N13          N14   1.317       .  A
N13          N15   1.311       .  A
N13         Mn19   2.171       .  S
N14          C21   1.348       .  A
N15          N16   1.313       .  A
N15         Mn41   2.157       .  S
N16          C21   1.348       .  A
N17          N18   1.323       .  A
N17         Mn19   2.175       .  S
N18          C20   1.354       .  A
Mn19        Cl43   2.444       .  S
C20        C3370   1.469       .  S
C21        C3418   1.457       .  S
N22          N23   1.301       .  A
N22          N28   1.303       .  A
N22         Mn30   2.131       .  S
N23          C31   1.330       .  A
N24          N26   1.309       .  A
N24          N25   1.354       .  A
N24         Mn42   2.397       .  S
N25          C32   1.389       .  A
N26          N27   1.294       .  A
N26         Mn30   2.069       .  S
N27          C32   1.326       .  A
N28          N29   1.354       .  A
N28         Mn42   2.395       .  S
N29          C31   1.391       .  A
Mn30        Cl43   2.628       .  S
C31        C3341   1.545       .  S
C32        C3306   1.533       .  S
N33          N34   1.310       .  A
N33          N39   1.313       .  A
N33         Mn41   2.117       .  S
N34          C44   1.337       .  A
N35          N36   1.342       .  A
N35          N37   1.314       .  A
N35         Mn42   2.309       .  S
N36          C45   1.376       .  A
N37          N38   1.315       .  A
N37         Mn41   2.176       .  S
N38          C45   1.340       .  A
N39          N40   1.339       .  A
N39         Mn42   2.319       .  S
N40          C44   1.375       .  A
Mn41        Cl43   2.560       .  S
Mn42        Cl43   2.374       .  S
C44        C3354   1.494       .  S
C45        C3322   1.513       .  S
N46          N47   1.312       .  A
N46          N52   1.302       .  A
N46         Mn75   2.135       .  S
N47          C54   1.346       .  A
N48          N50   1.315       .  A
N48          N49   1.306       .  A
N48         Mn64   2.143       .  S
N49          C55   1.335       .  A
N50          N51   1.318       .  A
N50         Mn75   2.174       .  S
N51          C55   1.352       .  A
N52          N53   1.312       .  A
N52         Mn64   2.142       .  S
N53          C54   1.344       .  A
C54        C3373   1.450       .  S
C55        C3293   1.456       .  S
N56          N62   1.311       .  A
N56          N57   1.348       .  A
N56         Mn86   2.355       .  S
N57          C65   1.386       .  A
N58          N59   1.305       .  A
N58          N60   1.318       .  A
N58         Mn64   2.118       .  S
N59          C66   1.324       .  A
N60          N61   1.347       .  A
N60         Mn86   2.348       .  S
N61          C66   1.384       .  A
N62          N63   1.298       .  A
N62         Mn64   2.052       .  S
N63          C65   1.319       .  A
Mn64        Cl88   2.429       .  S
C65        C3194   1.495       .  S
C66        C3226   1.503       .  S
N67          N68   1.312       .  A
N67          N73   1.307       .  A
N67         Mn75   2.159       .  S
N68          C76   1.349       .  A
N69          N71   1.313       .  A
N69          N70   1.318       .  A
N69         Mn87   2.154       .  S
N70          C77   1.346       .  A
N71          N72   1.319       .  A
N71         Mn75   2.164       .  S
N72          C77   1.349       .  A
N73          N74   1.314       .  A
N73         Mn87   2.122       .  S
N74          C76   1.337       .  A
Mn75        Cl88   2.569       .  S
C76        C3274   1.434       .  S
C77        C3261   1.497       .  S
N78          N79   1.355       .  A
N78          N84   1.309       .  A
N78         Mn86   2.376       .  S
N79          C89   1.393       .  A
N80          N81   1.304       .  A
N80          N82   1.320       .  A
N80         Mn87   2.140       .  S
N81          C90   1.334       .  A
N82          N83   1.347       .  A
N82         Mn86   2.351       .  S
N83          C90   1.382       .  A
N84          N85   1.297       .  A
N84         Mn87   2.054       .  S
N85          C89   1.317       .  A
Mn86        Cl88   2.592       .  S
Mn87        Cl88   2.460       .  S
C89        C3213   1.516       .  S
C90        C3242   1.515       .  S
N91          N92   1.297       .  A
N91          N97   1.309       .  A
N91        Mn120   2.110       .  S
N92          C99   1.328       .  A
N93          N95   1.309       .  A
N93          N94   1.322       .  A
N93        Mn109   2.192       .  S
N94         C100   1.358       .  A
N95          N96   1.310       .  A
N95        Mn120   2.153       .  S
N96         C100   1.348       .  A
N97          N98   1.332       .  A
N97        Mn109   2.216       .  S
N98          C99   1.365       .  A
C99        C3149   1.467       .  S
C100       C3162   1.473       .  S
N101        N107   1.309       .  A
N101        N102   1.306       .  A
N101       Mn131   2.143       .  S
N102        C110   1.347       .  A
N103        N104   1.316       .  A
N103        N105   1.307       .  A
N103       Mn109   2.173       .  S
N104        C111   1.354       .  A
N105        N106   1.308       .  A
N105       Mn131   2.116       .  S
N106        C111   1.334       .  A
N107        N108   1.320       .  A
N107       Mn109   2.192       .  S
N108        C110   1.361       .  A
Mn109      Cl133   2.548       .  S
C110       C3178   1.472       .  S
C111       C3277   1.431       .  S
N112        N113   1.296       .  A
N112        N118   1.307       .  A
N112       Mn120   2.085       .  S
N113        C121   1.324       .  A
N114        N116   1.313       .  A
N114        N115   1.350       .  A
N114       Mn132   2.370       .  S
N115        C122   1.386       .  A
N116        N117   1.304       .  A
N116       Mn120   2.112       .  S
N117        C122   1.336       .  A
N118        N119   1.352       .  A
N118       Mn132   2.353       .  S
N119        C121   1.388       .  A
Mn120      Cl133   2.500       .  S
C121       C3101   1.522       .  S
C122       C3114   1.531       .  S
N123        N124   1.298       .  A
N123        N129   1.314       .  A
N123       Mn131   2.068       .  S
N124        C134   1.329       .  A
N125        N126   1.351       .  A
N125        N127   1.305       .  A
N125       Mn132   2.357       .  S
N126        C135   1.389       .  A
N127        N128   1.297       .  A
N127       Mn131   2.073       .  S
N128        C135   1.322       .  A
N129        N130   1.347       .  A
N129       Mn132   2.368       .  S
N130        C134   1.384       .  A
Mn131      Cl133   2.500       .  S
Mn132      Cl133   2.483       .  S
C134       C3130   1.507       .  S
C135       C3082   1.514       .  S
N136        N137   1.314       .  A
N136        N142   1.315       .  A
N136       Mn165   2.174       .  S
N137        C144   1.348       .  A
N138        N140   1.303       .  A
N138        N139   1.318       .  A
N138       Mn154   2.167       .  S
N139        C145   1.349       .  A
N140        N141   1.303       .  A
N140       Mn165   2.092       .  S
N141        C145   1.330       .  A
N142        N143   1.317       .  A
N142       Mn154   2.155       .  S
N143        C144   1.348       .  A
C144       C3290   1.468       .  S
C145       C3181   1.441       .  S
N146        N152   1.312       .  A
N146        N147   1.319       .  A
N146       Mn176   2.188       .  S
N147        C155   1.353       .  A
N148        N149   1.311       .  A
N148        N150   1.305       .  A
N148       Mn154   2.150       .  S
N149        C156   1.345       .  A
N150        N151   1.318       .  A
N150       Mn176   2.138       .  S
N151        C156   1.347       .  A
N152        N153   1.311       .  A
N152       Mn154   2.143       .  S
N153        C155   1.347       .  A
Mn154      Cl178   2.535       .  S
C155       C3069   1.485       .  S
C156       C3421   1.453       .  S
N157        N158   1.318       .  A
N157        N163   1.323       .  A
N157       Mn165   2.227       .  S
N158        C166   1.345       .  A
N159        N161   1.307       .  A
N159        N160   1.350       .  A
N159       Mn177   2.348       .  S
N160        C167   1.387       .  A
N161        N162   1.298       .  A
N161       Mn165   2.062       .  S
N162        C167   1.322       .  A
N163        N164   1.343       .  A
N163       Mn177   2.311       .  S
N164        C166   1.374       .  A
Mn165      Cl178   2.483       .  S
C166       C3002   1.527       .  S
C167       C3053   1.507       .  S
N168        N169   1.311       .  A
N168        N174   1.323       .  A
N168       Mn176   2.152       .  S
N169        C179   1.339       .  A
N170        N171   1.353       .  A
N170        N172   1.307       .  A
N170       Mn177   2.351       .  S
N171        C180   1.390       .  A
N172        N173   1.294       .  A
N172       Mn176   2.041       .  S
N173        C180   1.315       .  A
N174        N175   1.336       .  A
N174       Mn177   2.320       .  S
N175        C179   1.371       .  A
Mn176      Cl178   2.485       .  S
Mn177      Cl178   2.566       .  S
C179       C3034   1.489       .  S
C180       C3018   1.508       .  S
N181        N182   1.319       .  A
N181        N187   1.312       .  A
N181       Mn210   2.160       .  S
N182        C189   1.341       .  A
N183        N185   1.310       .  A
N183        N184   1.306       .  A
N183       Mn199   2.122       .  S
N184        C190   1.340       .  A
N185        N186   1.314       .  A
N185       Mn210   2.161       .  S
N186        C190   1.345       .  A
N187        N188   1.318       .  A
N187       Mn199   2.203       .  S
N188        C189   1.350       .  A
C189       C3405   1.457       .  S
C190       C3066   1.449       .  S
N191        N197   1.309       .  A
N191        N192   1.300       .  A
N191       Mn221   2.097       .  S
N192        C200   1.325       .  A
N193        N194   1.315       .  A
N193        N195   1.309       .  A
N193       Mn199   2.159       .  S
N194        C201   1.345       .  A
N195        N196   1.316       .  A
N195       Mn221   2.163       .  S
N196        C201   1.351       .  A
N197        N198   1.332       .  A
N197       Mn199   2.246       .  S
N198        C200   1.365       .  A
Mn199      Cl223   2.532       .  S
C200       C3165   1.473       .  S
C201       C2986   1.467       .  S
N202        N203   1.307       .  A
N202        N208   1.316       .  A
N202       Mn210   2.105       .  S
N203        C211   1.329       .  A
N204        N206   1.318       .  A
N204        N205   1.342       .  A
N204       Mn222   2.324       .  S
N205        C212   1.376       .  A
N206        N207   1.306       .  A
N206       Mn210   2.130       .  S
N207        C212   1.331       .  A
N208        N209   1.348       .  A
N208       Mn222   2.371       .  S
N209        C211   1.385       .  A
Mn210      Cl223   2.536       .  S
C211       C2941   1.514       .  S
C212       C2970   1.497       .  S
N213        N214   1.300       .  A
N213        N219   1.310       .  A
N213       Mn221   2.067       .  S
N214        C224   1.323       .  A
N215        N216   1.343       .  A
N215        N217   1.319       .  A
N215       Mn222   2.329       .  S
N216        C225   1.376       .  A
N217        N218   1.321       .  A
N217       Mn221   2.205       .  S
N218        C225   1.344       .  A
N219        N220   1.352       .  A
N219       Mn222   2.370       .  S
N220        C224   1.389       .  A
Mn221      Cl223   2.533       .  S
Mn222      Cl223   2.519       .  S
C224       C2954   1.514       .  S
C225       C2922   1.528       .  S
N226        N227   1.327       .  A
N226        N232   1.304       .  A
N226       Mn255   2.118       .  S
N227        C234   1.355       .  A
N228        N230   1.304       .  A
N228        N229   1.301       .  A
N228       Mn244   2.142       .  S
N229        C235   1.323       .  A
N230        N231   1.317       .  A
N230       Mn255   2.156       .  S
N231        C235   1.354       .  A
N232        N233   1.293       .  A
N232       Mn244   2.135       .  S
N233        C234   1.327       .  A
C234       C3389   1.433       .  S
C235       C3258   1.442       .  S
N236        N242   1.305       .  A
N236        N237   1.350       .  A
N236       Mn266   2.366       .  S
N237        C245   1.390       .  A
N238        N239   1.311       .  A
N238        N240   1.311       .  A
N238       Mn244   2.133       .  S
N239        C246   1.329       .  A
N240        N241   1.352       .  A
N240       Mn266   2.377       .  S
N241        C246   1.392       .  A
N242        N243   1.298       .  A
N242       Mn244   2.038       .  S
N243        C245   1.318       .  A
Mn244      Cl268   2.362       .  S
C245       C2877   1.502       .  S
C246       C2906   1.535       .  S
N247        N248   1.312       .  A
N247        N253   1.311       .  A
N247       Mn255   2.125       .  S
N248        C256   1.345       .  A
N249        N251   1.309       .  A
N249        N250   1.318       .  A
N249       Mn267   2.164       .  S
N250        C257   1.346       .  A
N251        N252   1.310       .  A
N251       Mn255   2.138       .  S
N252        C257   1.345       .  A
N253        N254   1.317       .  A
N253       Mn267   2.208       .  S
N254        C256   1.360       .  A
Mn255      Cl268   2.607       .  S
C256       C3146   1.467       .  S
C257       C2989   1.461       .  S
N258        N259   1.349       .  A
N258        N264   1.320       .  A
N258       Mn266   2.363       .  S
N259        C269   1.384       .  A
N260        N261   1.306       .  A
N260        N262   1.319       .  A
N260       Mn267   2.116       .  S
N261        C270   1.328       .  A
N262        N263   1.343       .  A
N262       Mn266   2.330       .  S
N263        C270   1.376       .  A
N264        N265   1.305       .  A
N264       Mn267   2.130       .  S
N265        C269   1.330       .  A
Mn266      Cl268   2.574       .  S
Mn267      Cl268   2.448       .  S
C269       C2858   1.516       .  S
C270       C2890   1.492       .  S
N271        N272   1.323       .  A
N271        N277   1.305       .  A
N271       Mn300   2.177       .  S
N272        C279   1.355       .  A
N273        N275   1.311       .  A
N273        N274   1.305       .  A
N273       Mn289   2.111       .  S
N274        C280   1.340       .  A
N275        N276   1.323       .  A
N275       Mn300   2.204   1_554  S
N276        C280   1.356       .  A
N277        N278   1.303       .  A
N277       Mn289   2.122   1_556  S
N278        C279   1.337       .  A
C279       C2794   1.460       .  S
C280       C2826   1.476       .  S
N281        N287   1.305       .  A
N281        N282   1.301       .  A
N281       Mn311   2.097       .  S
N282        C290   1.327       .  A
N283        N284   1.307   1_554  A
N283        N285   1.309       .  A
N283       Mn289   2.145       .  S
N284        C291   1.348       .  A
N285        N286   1.313       .  A
N285       Mn311   2.135       .  S
N286        C291   1.346   1_554  A
N287        N288   1.317       .  A
N287       Mn289   2.147       .  S
N288        C290   1.345       .  A
Mn289      Cl313   2.531       .  S
C290       C2810   1.429       .  S
C291       C2842   1.447       .  S
N292        N293   1.304       .  A
N292        N298   1.313   1_556  A
N292       Mn300   2.099       .  S
N293        C301   1.328   1_556  A
N294        N296   1.320       .  A
N294        N295   1.346       .  A
N294       Mn312   2.354   1_556  S
N295        C302   1.381       .  A
N296        N297   1.309       .  A
N296       Mn300   2.155       .  S
N297        C302   1.340       .  A
N298        N299   1.349       .  A
N298       Mn312   2.354       .  S
N299        C301   1.385       .  A
Mn300      Cl313   2.510   1_556  S
C301       C2730   1.513       .  S
C302       C2778   1.527       .  S
N303        N304   1.295       .  A
N303        N309   1.308       .  A
N303       Mn311   2.039       .  S
N304        C314   1.320       .  A
N305        N306   1.354       .  A
N305        N307   1.316       .  A
N305       Mn312   2.391       .  S
N306        C315   1.390       .  A
N307        N308   1.306       .  A
N307       Mn311   2.128       .  S
N308        C315   1.327       .  A
N309        N310   1.353   1_554  A
N309       Mn312   2.375       .  S
N310        C314   1.391   1_556  A
Mn311      Cl313   2.521       .  S
Mn312      Cl313   2.523       .  S
C314       C2746   1.515   1_554  S
C315       C2762   1.535       .  S
N316        N317   1.315       .  A
N316        N322   1.307       .  A
N316       Mn345   2.174   1_655  S
N317        C324   1.360       .  A
N318        N320   1.307   1_655  A
N318        N319   1.308   1_655  A
N318       Mn334   2.115       .  S
N319        C325   1.341       .  A
N320        N321   1.316       .  A
N320       Mn345   2.173       .  S
N321        C325   1.347       .  A
N322        N323   1.312       .  A
N322       Mn334   2.158       .  S
N323        C324   1.350       .  A
C324       C2797   1.467       .  S
C325       C2698   1.456       .  S
N326        N332   1.318   1_455  A
N326        N327   1.339       .  A
N326       Mn356   2.314       .  S
N327        C335   1.375       .  A
N328        N329   1.301       .  A
N328        N330   1.311       .  A
N328       Mn334   2.072       .  S
N329        C336   1.324       .  A
N330        N331   1.342       .  A
N330       Mn356   2.325   1_655  S
N331        C336   1.380       .  A
N332        N333   1.316       .  A
N332       Mn334   2.173       .  S
N333        C335   1.342   1_655  A
Mn334      Cl358   2.510   1_655  S
C335       C2634   1.509       .  S
C336       C2666   1.483       .  S
N337        N338   1.320       .  A
N337        N343   1.310       .  A
N337       Mn345   2.173       .  S
N338        C346   1.350       .  A
N339        N341   1.315       .  A
N339        N340   1.318       .  A
N339       Mn357   2.146       .  S
N340        C347   1.340       .  A
N341        N342   1.313       .  A
N341       Mn345   2.183       .  S
N342        C347   1.346       .  A
N343        N344   1.302       .  A
N343       Mn357   2.119       .  S
N344        C346   1.329       .  A
Mn345      Cl358   2.510       .  S
C346       C2682   1.440       .  S
C347       C2714   1.455       .  S
N348        N349   1.345       .  A
N348        N354   1.316       .  A
N348       Mn356   2.347       .  S
N349        C359   1.380       .  A
N350        N351   1.303       .  A
N350        N352   1.311       .  A
N350       Mn357   2.087       .  S
N351        C360   1.324       .  A
N352        N353   1.354       .  A
N352       Mn356   2.375       .  S
N353        C360   1.390       .  A
N354        N355   1.301       .  A
N354       Mn357   2.085       .  S
N355        C359   1.325       .  A
Mn356      Cl358   2.517       .  S
Mn357      Cl358   2.528       .  S
C359       C2653   1.499       .  S
C360       C2621   1.523       .  S
N361        N362   1.354       .  A
N361        N367   1.309       .  A
N361       Mn390   2.360       .  S
N362        C369   1.389       .  A
N363        N365   1.320       .  A
N363        N364   1.307       .  A
N363       Mn379   2.162       .  S
N364        C370   1.338       .  A
N365        N366   1.343       .  A
N365       Mn390   2.319       .  S
N366        C370   1.374       .  A
N367        N368   1.299       .  A
N367       Mn379   2.076       .  S
N368        C369   1.323       .  A
C369       C2506   1.519       .  S
C370       C2538   1.507       .  S
N371        N377   1.311       .  A
N371        N372   1.320       .  A
N371       Mn401   2.197       .  S
N372        C380   1.350       .  A
N373        N374   1.310       .  A
N373        N375   1.314       .  A
N373       Mn379   2.168       .  S
N374        C381   1.342       .  A
N375        N376   1.328       .  A
N375       Mn401   2.183       .  S
N376        C381   1.355       .  A
N377        N378   1.316       .  A
N377       Mn379   2.140       .  S
N378        C380   1.336       .  A
Mn379      Cl403   2.503       .  S
C380       C2602   1.458       .  S
C381       C2685   1.491       .  S
N382        N383   1.341       .  A
N382        N388   1.309       .  A
N382       Mn390   2.316   1_554  S
N383        C391   1.379       .  A
N384        N386   1.320   1_554  A
N384        N385   1.320       .  A
N384       Mn402   2.239       .  S
N385        C392   1.348   1_554  A
N386        N387   1.339       .  A
N386       Mn390   2.273       .  S
N387        C392   1.371       .  A
N388        N389   1.300       .  A
N388       Mn402   2.080       .  S
N389        C391   1.327       .  A
Mn390      Cl403   2.565       .  S
C391       C2522   1.488       .  S
C392       C2557   1.524       .  S
N393        N394   1.329       .  A
N393        N399   1.303   1_556  A
N393       Mn401   2.204       .  S
N394        C404   1.365       .  A
N395        N396   1.316       .  A
N395        N397   1.310       .  A
N395       Mn402   2.176       .  S
N396        C405   1.354       .  A
N397        N398   1.318       .  A
N397       Mn401   2.190   1_554  S
N398        C405   1.354       .  A
N399        N400   1.292       .  A
N399       Mn402   2.082       .  S
N400        C404   1.324   1_554  A
Mn401      Cl403   2.543       .  S
Mn402      Cl403   2.466   1_554  S
C404       C2586   1.460       .  S
C405       C2573   1.474       .  S
N406        N407   1.321       .  A
N406        N412   1.312       .  A
N406       Mn435   2.178       .  S
N407        C414   1.358       .  A
N408        N410   1.307       .  A
N408        N409   1.314       .  A
N408       Mn424   2.143       .  S
N409        C415   1.340       .  A
N410        N411   1.319       .  A
N410       Mn435   2.184       .  S
N411        C415   1.355       .  A
N412        N413   1.306       .  A
N412       Mn424   2.149       .  S
N413        C414   1.343       .  A
C414       C2813   1.460       .  S
C415       C2493   1.451       .  S
N416        N422   1.315       .  A
N416        N417   1.351   1_655  A
N416       Mn446   2.399       .  S
N417        C425   1.389   1_455  A
N418        N419   1.296       .  A
N418        N420   1.300       .  A
N418       Mn424   2.070       .  S
N419        C426   1.325       .  A
N420        N421   1.359       .  A
N420       Mn446   2.395       .  S
N421        C426   1.396       .  A
N422        N423   1.298       .  A
N422       Mn424   2.074       .  S
N423        C425   1.328       .  A
Mn424      Cl448   2.523       .  S
C425       C2442   1.527       .  S
C426       C2410   1.545       .  S
N427        N428   1.321       .  A
N427        N433   1.315       .  A
N427       Mn435   2.202   1_455  S
N428        C436   1.354       .  A
N429        N431   1.305   1_455  A
N429        N430   1.299       .  A
N429       Mn447   2.102       .  S
N430        C437   1.328   1_455  A
N431        N432   1.327       .  A
N431       Mn435   2.195       .  S
N432        C437   1.361       .  A
N433        N434   1.313       .  A
N433       Mn447   2.175       .  S
N434        C436   1.350       .  A
Mn435      Cl448   2.547       .  S
C436       C2570   1.474       .  S
C437       C2474   1.463       .  S
N438        N439   1.343   1_455  A
N438        N444   1.319       .  A
N438       Mn446   2.312   1_455  S
N439        C449   1.377   1_655  A
N440        N441   1.308       .  A
N440        N442   1.312       .  A
N440       Mn447   2.099       .  S
N441        C450   1.332       .  A
N442        N443   1.341       .  A
N442       Mn446   2.330   1_455  S
N443        C450   1.378       .  A
N444        N445   1.317       .  A
N444       Mn447   2.207       .  S
N445        C449   1.341       .  A
Mn446      Cl448   2.487       .  S
Mn447      Cl448   2.501   1_455  S
C449       C2458   1.527       .  S
C450       C2429   1.494       .  S
N451        N452   1.341   1_556  A
N451        N457   1.317       .  A
N451       Mn480   2.331       .  S
N452        C459   1.377   1_554  A
N453        N455   1.314       .  A
N453        N454   1.306       .  A
N453       Mn469   2.103       .  S
N454        C460   1.330   1_655  A
N455        N456   1.342   1_655  A
N455       Mn480   2.323       .  S
N456        C460   1.377       .  A
N457        N458   1.312       .  A
N457       Mn469   2.146       .  S
N458        C459   1.337       .  A
C459       C2349   1.505   1_556  S
C460       C2365   1.490       .  S
N461        N467   1.308       .  A
N461        N462   1.308       .  A
N461       Mn491   2.148   1_556  S
N462        C470   1.345       .  A
N463        N464   1.310   1_556  A
N463        N465   1.307   1_556  A
N463       Mn469   2.134       .  S
N464        C471   1.343       .  A
N465        N466   1.309       .  A
N465       Mn491   2.140   1_655  S
N466        C471   1.344       .  A
N467        N468   1.319       .  A
N467       Mn469   2.166   1_455  S
N468        C470   1.352       .  A
Mn469      Cl493   2.533   1_656  S
C470       C2701   1.463       .  S
C471       C2829   1.446       .  S
N472        N473   1.352       .  A
N472        N478   1.311   1_556  A
N472       Mn480   2.382   1_455  S
N473        C481   1.387       .  A
N474        N476   1.311       .  A
N474        N475   1.301       .  A
N474       Mn492   2.078       .  S
N475        C482   1.324   1_455  A
N476        N477   1.354   1_455  A
N476       Mn480   2.401   1_454  S
N477        C482   1.391       .  A
N478        N479   1.299       .  A
N478       Mn492   2.070       .  S
N479        C481   1.325   1_554  A
Mn480      Cl493   2.464   1_656  S
C481       C2378   1.517       .  S
C482       C2397   1.527       .  S
N483        N484   1.318   1_455  A
N483        N489   1.313       .  A
N483       Mn491   2.169       .  S
N484        C494   1.348       .  A
N485        N486   1.320       .  A
N485        N487   1.307       .  A
N485       Mn492   2.153       .  S
N486        C495   1.349   1_554  A
N487        N488   1.308   1_554  A
N487       Mn491   2.142       .  S
N488        C495   1.342       .  A
N489        N490   1.314       .  A
N489       Mn492   2.153       .  S
N490        C494   1.337   1_455  A
Mn491      Cl493   2.500       .  S
Mn492      Cl493   2.575       .  S
C494       C2477   1.450       .  S
C495       C2589   1.441       .  S
N496        N497   1.321   1_455  A
N496        N502   1.303   1_454  A
N496       Mn525   2.157       .  S
N497        C504   1.355       .  A
N498        N500   1.315       .  A
N498        N499   1.307       .  A
N498       Mn514   2.162       .  S
N499        C505   1.343       .  A
N500        N501   1.324       .  A
N500       Mn525   2.179   1_556  S
N501        C505   1.353       .  A
N502        N503   1.297       .  A
N502       Mn514   2.081   1_655  S
N503        C504   1.331   1_556  A
C504       C2845   1.419       .  S
C505       C2717   1.458       .  S
N506        N512   1.312       .  A
N506        N507   1.345       .  A
N506       Mn536   2.349       .  S
N507        C515   1.381       .  A
N508        N509   1.315       .  A
N508        N510   1.313       .  A
N508       Mn514   2.182   1_655  S
N509        C516   1.345       .  A
N510        N511   1.344       .  A
N510       Mn536   2.313   1_655  S
N511        C516   1.380       .  A
N512        N513   1.314       .  A
N512       Mn514   2.126       .  S
N513        C515   1.337       .  A
Mn514      Cl538   2.489   1_556  S
C515       C2317   1.516       .  S
C516       C2282   1.528       .  S
N517        N518   1.307       .  A
N517        N523   1.308       .  A
N517       Mn525   2.132       .  S
N518        C526   1.348       .  A
N519        N521   1.317       .  A
N519        N520   1.318       .  A
N519       Mn537   2.230       .  S
N520        C527   1.350       .  A
N521        N522   1.307       .  A
N521       Mn525   2.127       .  S
N522        C527   1.337       .  A
N523        N524   1.321       .  A
N523       Mn537   2.184       .  S
N524        C526   1.352       .  A
Mn525      Cl538   2.556       .  S
C526       C2605   1.449       .  S
C527       C2490   1.444       .  S
N528        N529   1.351   1_455  A
N528        N534   1.301       .  A
N528       Mn536   2.372   1_554  S
N529        C539   1.390   1_655  A
N530        N531   1.293       .  A
N530        N532   1.317   1_554  A
N530       Mn537   2.053       .  S
N531        C540   1.319   1_554  A
N532        N533   1.351       .  A
N532       Mn536   2.404       .  S
N533        C540   1.389       .  A
N534        N535   1.295       .  A
N534       Mn537   2.122       .  S
N535        C539   1.325       .  A
Mn536      Cl538   2.485   1_556  S
Mn537      Cl538   2.555       .  S
C539       C2333   1.529   1_455  S
C540       C2298   1.511       .  S
N541        N542   1.341       .  A
N541        N547   1.309       .  A
N541       Mn570   2.327   1_556  S
N542        C549   1.380       .  A
N543        N545   1.317       .  A
N543        N544   1.309       .  A
N543       Mn559   2.165       .  S
N544        C550   1.338       .  A
N545        N546   1.340       .  A
N545       Mn570   2.296       .  S
N546        C550   1.375       .  A
N547        N548   1.304       .  A
N547       Mn559   2.078   1_556  S
N548        C549   1.329       .  A
C549       C2173   1.489       .  S
C550       C2186   1.503       .  S
N551        N557   1.303       .  A
N551        N552   1.320       .  A
N551       Mn581   2.174   1_554  S
N552        C560   1.356       .  A
N553        N554   1.312       .  A
N553        N555   1.309       .  A
N553       Mn559   2.136   1_556  S
N554        C561   1.348       .  A
N555        N556   1.315       .  A
N555       Mn581   2.170       .  S
N556        C561   1.351       .  A
N557        N558   1.308       .  A
N557       Mn559   2.114       .  S
N558        C560   1.336       .  A
Mn559      Cl583   2.532   1_554  S
C560       C2234   1.459       .  S
C561       C2266   1.461       .  S
N562        N563   1.357       .  A
N562        N568   1.291   1_554  A
N562       Mn570   2.411       .  S
N563        C571   1.399       .  A
N564        N566   1.314       .  A
N564        N565   1.306       .  A
N564       Mn582   2.099       .  S
N565        C572   1.335       .  A
N566        N567   1.351       .  A
N566       Mn570   2.392   1_556  S
N567        C572   1.385       .  A
N568        N569   1.303       .  A
N568       Mn582   2.178       .  S
N569        C571   1.329   1_556  A
Mn570      Cl583   2.384   1_554  S
C571       C2157   1.556       .  S
C572       C2202   1.537       .  S
N573        N574   1.310       .  A
N573        N579   1.310       .  A
N573       Mn581   2.150       .  S
N574        C584   1.344       .  A
N575        N576   1.316   1_556  A
N575        N577   1.319   1_556  A
N575       Mn582   2.263       .  S
N576        C585   1.355       .  A
N577        N578   1.309       .  A
N577       Mn581   2.133   1_554  S
N578        C585   1.340       .  A
N579        N580   1.314       .  A
N579       Mn582   2.132       .  S
N580        C584   1.337       .  A
Mn581      Cl583   2.459       .  S
Mn582      Cl583   2.605       .  S
C584       C2221   1.424       .  S
C585       C2250   1.463       .  S
N586        N587   1.309       .  A
N586        N592   1.305       .  A
N586       Mn615   2.105       .  S
N587        C594   1.333       .  A
N588        N590   1.314       .  A
N588        N589   1.309       .  A
N588       Mn604   2.126       .  S
N589        C595   1.343       .  A
N590        N591   1.314       .  A
N590       Mn615   2.223   1_545  S
N591        C595   1.360       .  A
N592        N593   1.315       .  A
N592       Mn604   2.152   1_565  S
N593        C594   1.350       .  A
C594       C2218   1.425       .  S
C595       C2122   1.468       .  S
N596        N602   1.302       .  A
N596        N597   1.308       .  A
N596       Mn626   2.109       .  S
N597        C605   1.337       .  A
N598        N599   1.315   1_545  A
N598        N600   1.308       .  A
N598       Mn604   2.139       .  S
N599        C606   1.353       .  A
N600        N601   1.301       .  A
N600       Mn626   2.141       .  S
N601        C606   1.347   1_545  A
N602        N603   1.316       .  A
N602       Mn604   2.158       .  S
N603        C605   1.352       .  A
Mn604      Cl628   2.513       .  S
C605       C2106   1.454       .  S
C606       C2138   1.442       .  S
N607        N608   1.301       .  A
N607        N613   1.296       .  A
N607       Mn615   2.123   1_545  S
N608        C616   1.331       .  A
N609        N611   1.319       .  A
N609        N610   1.351       .  A
N609       Mn627   2.407   1_565  S
N610        C617   1.386       .  A
N611        N612   1.308       .  A
N611       Mn615   2.101       .  S
N612        C617   1.332       .  A
N613        N614   1.360       .  A
N613       Mn627   2.409       .  S
N614        C616   1.398       .  A
Mn615      Cl628   2.557   1_565  S
C616       C2058   1.565       .  S
C617       C2090   1.530       .  S
N618        N619   1.307       .  A
N618        N624   1.311       .  A
N618       Mn626   2.088       .  S
N619        C629   1.328       .  A
N620        N621   1.335       .  A
N620        N622   1.316       .  A
N620       Mn627   2.275       .  S
N621        C630   1.370       .  A
N622        N623   1.311       .  A
N622       Mn626   2.166       .  S
N623        C630   1.338       .  A
N624        N625   1.344       .  A
N624       Mn627   2.342       .  S
N625        C629   1.382       .  A
Mn626      Cl628   2.485       .  S
Mn627      Cl628   2.446       .  S
C629       C2042   1.501       .  S
C630       C2074   1.487       .  S
N631        N632   1.320       .  A
N631        N637   1.306       .  A
N631       Mn660   2.153       .  S
N632        C639   1.347       .  A
N633        N635   1.314       .  A
N633        N634   1.312       .  A
N633       Mn649   2.161   1_554  S
N634        C640   1.346       .  A
N635        N636   1.320       .  A
N635       Mn660   2.170   1_554  S
N636        C640   1.348       .  A
N637        N638   1.312       .  A
N637       Mn649   2.140       .  S
N638        C639   1.343       .  A
C639       C2109   1.468       .  S
C640       C2029   1.463       .  S
N641        N647   1.314   1_554  A
N641        N642   1.338       .  A
N641       Mn671   2.310   1_554  S
N642        C650   1.374       .  A
N643        N644   1.308       .  A
N643        N645   1.314       .  A
N643       Mn649   2.149       .  S
N644        C651   1.335       .  A
N645        N646   1.339       .  A
N645       Mn671   2.296       .  S
N646        C651   1.375       .  A
N647        N648   1.310       .  A
N647       Mn649   2.127       .  S
N648        C650   1.338   1_556  A
Mn649      Cl673   2.524       .  S
C650       C1930   1.494       .  S
C651       C1962   1.496       .  S
N652        N653   1.310       .  A
N652        N658   1.309       .  A
N652       Mn660   2.158   1_554  S
N653        C661   1.345       .  A
N654        N656   1.309       .  A
N654        N655   1.313       .  A
N654       Mn672   2.184   1_556  S
N655        C662   1.359       .  A
N656        N657   1.304       .  A
N656       Mn660   2.132       .  S
N657        C662   1.345       .  A
N658        N659   1.321       .  A
N658       Mn672   2.165       .  S
N659        C661   1.348       .  A
Mn660      Cl673   2.484       .  S
C661       C1994   1.445       .  S
C662       C2010   1.450       .  S
N663        N664   1.357       .  A
N663        N669   1.304   1_556  A
N663       Mn671   2.388       .  S
N664        C674   1.392       .  A
N665        N666   1.304       .  A
N665        N667   1.316       .  A
N665       Mn672   2.077       .  S
N666        C675   1.331       .  A
N667        N668   1.346       .  A
N667       Mn671   2.372   1_554  S
N668        C675   1.380       .  A
N669        N670   1.303       .  A
N669       Mn672   2.128       .  S
N670        C674   1.333   1_554  A
Mn671      Cl673   2.431       .  S
Mn672      Cl673   2.587   1_554  S
C674       C1946   1.555       .  S
C675       C1978   1.508       .  S
N676        N677   1.308       .  A
N676        N682   1.312       .  A
N676       Mn705   2.155       .  S
N677        C684   1.345       .  A
N678        N680   1.313       .  A
N678        N679   1.319       .  A
N678       Mn694   2.174   1_545  S
N679        C685   1.352       .  A
N680        N681   1.300       .  A
N680       Mn705   2.154   1_545  S
N681        C685   1.348       .  A
N682        N683   1.317       .  A
N682       Mn694   2.155       .  S
N683        C684   1.343       .  A
C684       C2237   1.436       .  S
C685       C1901   1.455       .  S
N686        N692   1.304       .  A
N686        N687   1.361       .  A
N686       Mn716   2.445       .  S
N687        C695   1.400       .  A
N688        N689   1.302       .  A
N688        N690   1.312       .  A
N688       Mn694   2.089       .  S
N689        C696   1.330       .  A
N690        N691   1.353       .  A
N690       Mn716   2.400   1_565  S
N691        C696   1.387       .  A
N692        N693   1.304       .  A
N692       Mn694   2.094   1_545  S
N693        C695   1.328       .  A
Mn694      Cl718   2.628   1_565  S
C695       C1866   1.565       .  S
C696       C1850   1.538       .  S
N697        N698   1.321       .  A
N697        N703   1.306       .  A
N697       Mn705   2.197   1_545  S
N698        C706   1.355       .  A
N699        N701   1.310       .  A
N699        N700   1.310       .  A
N699       Mn717   2.147   1_565  S
N700        C707   1.344       .  A
N701        N702   1.325       .  A
N701       Mn705   2.205       .  S
N702        C707   1.358       .  A
N703        N704   1.312       .  A
N703       Mn717   2.117       .  S
N704        C706   1.339       .  A
Mn705      Cl718   2.462   1_565  S
C706       C1997   1.465       .  S
C707       C1914   1.468       .  S
N708        N709   1.344       .  A
N708        N714   1.312       .  A
N708       Mn716   2.337       .  S
N709        C719   1.380       .  A
N710        N711   1.312       .  A
N710        N712   1.316       .  A
N710       Mn717   2.154       .  S
N711        C720   1.337       .  A
N712        N713   1.340       .  A
N712       Mn716   2.315       .  S
N713        C720   1.377       .  A
N714        N715   1.306       .  A
N714       Mn717   2.102       .  S
N715        C719   1.332       .  A
Mn716      Cl718   2.392       .  S
Mn717      Cl718   2.543       .  S
C719       C1882   1.502   1_545  S
C720       C1837   1.505       .  S
N721        N722   1.290       .  A
N721        N727   1.301       .  A
N721       Mn750   2.087       .  S
N722        C729   1.322       .  A
N723        N725   1.305   1_556  A
N723        N724   1.328       .  A
N723       Mn739   2.174       .  S
N724        C730   1.362       .  A
N725        N726   1.293       .  A
N725       Mn750   2.106       .  S
N726        C730   1.326   1_554  A
N727        N728   1.330       .  A
N727       Mn739   2.208   1_554  S
N728        C729   1.370       .  A
C729       C1898   1.443       .  S
C730       C2013   1.441       .  S
N731        N737   1.311       .  A
N731        N732   1.292       .  A
N731       Mn761   2.098   1_545  S
N732        C740   1.323       .  A
N733        N734   1.328       .  A
N733        N735   1.309       .  A
N733       Mn739   2.199   1_565  S
N734        C741   1.361       .  A
N735        N736   1.297       .  A
N735       Mn761   2.109       .  S
N736        C741   1.326       .  A
N737        N738   1.331       .  A
N737       Mn739   2.212       .  S
N738        C740   1.362       .  A
Mn739      Cl763   2.633       .  S
C740       C2125   1.444       .  S
C741       C2253   1.457   1_556  S
N742        N743   1.309       .  A
N742        N748   1.314   1_554  A
N742       Mn750   2.183       .  S
N743        C751   1.337   1_554  A
N744        N746   1.303       .  A
N744        N745   1.357       .  A
N744       Mn762   2.390   1_554  S
N745        C752   1.397       .  A
N746        N747   1.302       .  A
N746       Mn750   2.069       .  S
N747        C752   1.317       .  A
N748        N749   1.348       .  A
N748       Mn762   2.311       .  S
N749        C751   1.382       .  A
Mn750      Cl763   2.351   1_554  S
C751       C1786   1.532       .  S
C752       C1821   1.535       .  S
N753        N754   1.305       .  A
N753        N759   1.320       .  A
N753       Mn761   2.124       .  S
N754        C764   1.327       .  A
N755        N756   1.355       .  A
N755        N757   1.312       .  A
N755       Mn762   2.374       .  S
N756        C765   1.390       .  A
N757        N758   1.301       .  A
N757       Mn761   2.092   1_545  S
N758        C765   1.324       .  A
N759        N760   1.351   1_556  A
N759       Mn762   2.377   1_565  S
N760        C764   1.386   1_554  A
Mn761      Cl763   2.428   1_565  S
Mn762      Cl763   2.616       .  S
C764       C1770   1.518       .  S
C765       C1802   1.527       .  S
N766        N767   1.338   1_556  A
N766        N772   1.318       .  A
N766       Mn795   2.300   1_566  S
N767        C774   1.373   1_554  A
N768        N770   1.308       .  A
N768        N769   1.299       .  A
N768       Mn784   2.039       .  S
N769        C775   1.317       .  A
N770        N771   1.350       .  A
N770       Mn795   2.365   1_556  S
N771        C775   1.390       .  A
N772        N773   1.313       .  A
N772       Mn784   2.164   1_565  S
N773        C774   1.339       .  A
C774       C1725   1.500       .  S
C775       C1741   1.499       .  S
N776        N782   1.309       .  A
N776        N777   1.308       .  A
N776       Mn806   2.146   1_556  S
N777        C785   1.350       .  A
N778        N779   1.311       .  A
N778        N780   1.307       .  A
N778       Mn784   2.109   1_565  S
N779        C786   1.339       .  A
N780        N781   1.319       .  A
N780       Mn806   2.197   1_566  S
N781        C786   1.355       .  A
N782        N783   1.309       .  A
N782       Mn784   2.172       .  S
N783        C785   1.349       .  A
Mn784      Cl808   2.452   1_556  S
C785       C2141   1.472       .  S
C786       C2269   1.455       .  S
N787        N788   1.336       .  A
N787        N793   1.322       .  A
N787       Mn795   2.285       .  S
N788        C796   1.370       .  A
N789        N791   1.310       .  A
N789        N790   1.300       .  A
N789       Mn807   2.062       .  S
N790        C797   1.320   1_545  A
N791        N792   1.347   1_545  A
N791       Mn795   2.349       .  S
N792        C797   1.386       .  A
N793        N794   1.315       .  A
N793       Mn807   2.195       .  S
N794        C796   1.344       .  A
Mn795      Cl808   2.583       .  S
C796       C1706   1.508       .  S
C797       C1754   1.496       .  S
N798        N799   1.312   1_545  A
N798        N804   1.311       .  A
N798       Mn806   2.142       .  S
N799        C809   1.346       .  A
N800        N801   1.316       .  A
N800        N802   1.307       .  A
N800       Mn807   2.126       .  S
N801        C810   1.342       .  A
N802        N803   1.313       .  A
N802       Mn806   2.171       .  S
N803        C810   1.351       .  A
N804        N805   1.323   1_545  A
N804       Mn807   2.214       .  S
N805        C809   1.358       .  A
Mn806      Cl808   2.538       .  S
Mn807      Cl808   2.463       .  S
C809       C1917   1.474       .  S
C810       C2026   1.446       .  S
N811        N812   1.301       .  A
N811        N817   1.309       .  A
N811       Mn840   2.104       .  S
N812        C819   1.330       .  A
N813        N815   1.302       .  A
N813        N814   1.322       .  A
N813       Mn829   2.159       .  S
N814        C820   1.357       .  A
N815        N816   1.297       .  A
N815       Mn840   2.081       .  S
N816        C820   1.324       .  A
N817        N818   1.314       .  A
N817       Mn829   2.179       .  S
N818        C819   1.357       .  A
C819       C1642   1.423       .  S
C820       C1677   1.437       .  S
N821        N827   1.310       .  A
N821        N822   1.313       .  A
N821       Mn851   2.173       .  S
N822        C830   1.349       .  A
N823        N824   1.313   1_455  A
N823        N825   1.306       .  A
N823       Mn829   2.172   1_455  S
N824        C831   1.352   1_655  A
N825        N826   1.315       .  A
N825       Mn851   2.124       .  S
N826        C831   1.337       .  A
N827        N828   1.320       .  A
N827       Mn829   2.175   1_455  S
N828        C830   1.355       .  A
Mn829      Cl853   2.528   1_655  S
C830       C1658   1.470       .  S
C831       C1693   1.444       .  S
N832        N833   1.298       .  A
N832        N838   1.314   1_655  A
N832       Mn840   2.048       .  S
N833        C841   1.326   1_655  A
N834        N836   1.295       .  A
N834        N835   1.362       .  A
N834       Mn852   2.438   1_655  S
N835        C842   1.403       .  A
N836        N837   1.301       .  A
N836       Mn840   2.054       .  S
N837        C842   1.320       .  A
N838        N839   1.350       .  A
N838       Mn852   2.411       .  S
N839        C841   1.389       .  A
Mn840      Cl853   2.490   1_655  S
C841       C1597   1.511       .  S
C842       C1629   1.555       .  S
N843        N844   1.308       .  A
N843        N849   1.318       .  A
N843       Mn851   2.176       .  S
N844        C854   1.336       .  A
N845        N846   1.355       .  A
N845        N847   1.308       .  A
N845       Mn852   2.396       .  S
N846        C855   1.394       .  A
N847        N848   1.295       .  A
N847       Mn851   2.044       .  S
N848        C855   1.320       .  A
N849        N850   1.349       .  A
N849       Mn852   2.335       .  S
N850        C854   1.382       .  A
Mn851      Cl853   2.488       .  S
Mn852      Cl853   2.467       .  S
C854       C1610   1.536       .  S
C855       C1581   1.522       .  S
N856        N857   1.305       .  A
N856        N862   1.313       .  A
N856       Mn885   2.086       .  S
N857        C864   1.328       .  A
N858        N860   1.314   1_545  A
N858        N859   1.319       .  A
N858       Mn874   2.190   1_545  S
N859        C865   1.349       .  A
N860        N861   1.310   1_565  A
N860       Mn885   2.141       .  S
N861        C865   1.333       .  A
N862        N863   1.305       .  A
N862       Mn874   2.157       .  S
N863        C864   1.347       .  A
C864       C1645   1.404       .  S
C865       C1562   1.450       .  S
N866        N872   1.308       .  A
N866        N867   1.308       .  A
N866       Mn896   2.121       .  S
N867        C875   1.342       .  A
N868        N869   1.328       .  A
N868        N870   1.308   1_565  A
N868       Mn874   2.216       .  S
N869        C876   1.366       .  A
N870        N871   1.299       .  A
N870       Mn896   2.112       .  S
N871        C876   1.329   1_545  A
N872        N873   1.313       .  A
N872       Mn874   2.164   1_545  S
N873        C875   1.346       .  A
Mn874      Cl898   2.512   1_565  S
C875       C1530   1.452       .  S
C876       C1546   1.468       .  S
N877        N878   1.298       .  A
N877        N883   1.308       .  A
N877       Mn885   2.026   1_545  S
N878        C886   1.320       .  A
N879        N881   1.309       .  A
N879        N880   1.354       .  A
N879       Mn897   2.394   1_565  S
N880        C887   1.390       .  A
N881        N882   1.306       .  A
N881       Mn885   2.131       .  S
N882        C887   1.331       .  A
N883        N884   1.357       .  A
N883       Mn897   2.423       .  S
N884        C886   1.395       .  A
Mn885      Cl898   2.565   1_565  S
C886       C1498   1.527       .  S
C887       C1514   1.547       .  S
N888        N889   1.309       .  A
N888        N894   1.311       .  A
N888       Mn896   2.103       .  S
N889        C899   1.328       .  A
N890        N891   1.345       .  A
N890        N892   1.314       .  A
N890       Mn897   2.339       .  S
N891        C900   1.382       .  A
N892        N893   1.304       .  A
N892       Mn896   2.114       .  S
N893        C900   1.335       .  A
N894        N895   1.351       .  A
N894       Mn897   2.374       .  S
N895        C899   1.388       .  A
Mn896      Cl898   2.514       .  S
Mn897      Cl898   2.446       .  S
C899       C1482   1.523       .  S
C900       C1466   1.515       .  S
N901        N902   1.311       .  A
N901        N907   1.311       .  A
N901       Mn930   2.179   1_565  S
N902        C909   1.344       .  A
N903        N905   1.313   1_565  A
N903        N904   1.324       .  A
N903       Mn919   2.190       .  S
N904        C910   1.347       .  A
N905        N906   1.312   1_545  A
N905       Mn930   2.171       .  S
N906        C910   1.344       .  A
N907        N908   1.319       .  A
N907       Mn919   2.160       .  S
N908        C909   1.349       .  A
C909       C1661   1.468       .  S
C910       C1450   1.466       .  S
N911        N917   1.323   1_545  A
N911        N912   1.344       .  A
N911       Mn941   2.326       .  S
N912        C920   1.375       .  A
N913        N914   1.303       .  A
N913        N915   1.311       .  A
N913       Mn919   2.059       .  S
N914        C921   1.323       .  A
N915        N916   1.352       .  A
N915       Mn941   2.382   1_565  S
N916        C921   1.389       .  A
N917        N918   1.304       .  A
N917       Mn919   2.176       .  S
N918        C920   1.330   1_565  A
Mn919      Cl943   2.525   1_565  S
C920       C1357   1.523       .  S
C921       C1386   1.514       .  S
N922        N923   1.319       .  A
N922        N928   1.308       .  A
N922       Mn930   2.157       .  S
N923        C931   1.353       .  A
N924        N926   1.309       .  A
N924        N925   1.304       .  A
N924       Mn942   2.094       .  S
N925        C932   1.332       .  A
N926        N927   1.318       .  A
N926       Mn930   2.179       .  S
N927        C932   1.344       .  A
N928        N929   1.313       .  A
N928       Mn942   2.177       .  S
N929        C931   1.353       .  A
Mn930      Cl943   2.518       .  S
C931       C1418   1.471       .  S
C932       C1434   1.427       .  S
N933        N934   1.329       .  A
N933        N939   1.321       .  A
N933       Mn941   2.241       .  S
N934        C944   1.362       .  A
N935        N936   1.301       .  A
N935        N937   1.308       .  A
N935       Mn942   2.064       .  S
N936        C945   1.320       .  A
N937        N938   1.349       .  A
N937       Mn941   2.349       .  S
N938        C945   1.386       .  A
N939        N940   1.326       .  A
N939       Mn942   2.269       .  S
N940        C944   1.357       .  A
Mn941      Cl943   2.543       .  S
Mn942      Cl943   2.479       .  S
C944       C1405   1.506       .  S
C945       C1373   1.505       .  S
N946        N947   1.306       .  A
N946        N952   1.303       .  A
N946       Mn975   2.129   1_655  S
N947        C954   1.342       .  A
N948        N950   1.314       .  A
N948        N949   1.307       .  A
N948       Mn964   2.167   1_455  S
N949        C955   1.344       .  A
N950        N951   1.325       .  A
N950       Mn975   2.193       .  S
N951        C955   1.358       .  A
N952        N953   1.320       .  A
N952       Mn964   2.150       .  S
N953        C954   1.353       .  A
C954       C1533   1.459       .  S
C955       C1325   1.470       .  S
N956        N962   1.315   1_455  A
N956        N957   1.339       .  A
N956       Mn986   2.307       .  S
N957        C965   1.374       .  A
N958        N959   1.310       .  A
N958        N960   1.318       .  A
N958       Mn964   2.138       .  S
N959        C966   1.334       .  A
N960        N961   1.341       .  A
N960       Mn986   2.334   1_655  S
N961        C966   1.378       .  A
N962        N963   1.310       .  A
N962       Mn964   2.134       .  S
N963        C965   1.336   1_655  A
Mn964      Cl988   2.498   1_655  S
C965       C1309   1.494       .  S
C966       C1274   1.499       .  S
N967        N968   1.318       .  A
N967        N973   1.308       .  A
N967       Mn975   2.153       .  S
N968        C976   1.350       .  A
N969        N971   1.316       .  A
N969        N970   1.316       .  A
N969       Mn987   2.154       .  S
N970        C977   1.341   1_455  A
N971        N972   1.317   1_455  A
N971       Mn975   2.190       .  S
N972        C977   1.348       .  A
N973        N974   1.313       .  A
N973       Mn987   2.140       .  S
N974        C976   1.339       .  A
Mn975      Cl988   2.536       .  S
C976       C1421   1.458       .  S
C977       C1338   1.466       .  S
N978        N979   1.353   1_455  A
N978        N984   1.305       .  A
N978       Mn986   2.357       .  S
N979        C989   1.390   1_655  A
N980        N981   1.296       .  A
N980        N982   1.315       .  A
N980       Mn987   2.039       .  S
N981        C990   1.322       .  A
N982        N983   1.351       .  A
N982       Mn986   2.400       .  S
N983        C990   1.389       .  A
N984        N985   1.300       .  A
N984       Mn987   2.096       .  S
N985        C989   1.328       .  A
Mn986      Cl988   2.520       .  S
Mn987      Cl988   2.505       .  S
C989       C1258   1.533       .  S
C990       C1293   1.506       .  S
N991        N992   1.308   1_455  A
N991        N997   1.315       .  A
N991      Mn1020   2.167       .  S
N992        C999   1.351   1_655  A
N993        N995   1.307       .  A
N993        N994   1.327       .  A
N993      Mn1009   2.189       .  S
N994       C1000   1.359       .  A
N995        N996   1.294       .  A
N995      Mn1020   2.094       .  S
N996       C1000   1.337       .  A
N997        N998   1.315       .  A
N997      Mn1009   2.173       .  S
N998        C999   1.344       .  A
C999       C1674   1.437       .  S
C1000      C1437   1.448   1_565  S
N1001      N1007   1.318       .  A
N1001      N1002   1.344       .  A
N1001     Mn1031   2.380       .  S
N1002      C1010   1.380       .  A
N1003      N1004   1.303       .  A
N1003      N1005   1.310       .  A
N1003     Mn1009   2.130       .  S
N1004      C1011   1.333       .  A
N1005      N1006   1.349   1_455  A
N1005     Mn1031   2.343   1_565  S
N1006      C1011   1.383   1_655  A
N1007      N1008   1.308       .  A
N1007     Mn1009   2.091   1_545  S
N1008      C1010   1.333       .  A
Mn1009    Cl1033   2.583   1_565  S
C1010      C1197   1.503       .  S
C1011      C1213   1.531       .  S
N1012      N1013   1.330       .  A
N1012      N1018   1.312   1_455  A
N1012     Mn1020   2.245   1_545  S
N1013      C1021   1.364       .  A
N1014      N1016   1.304   1_545  A
N1014      N1015   1.312       .  A
N1014     Mn1032   2.147       .  S
N1015      C1022   1.347   1_545  A
N1016      N1017   1.320       .  A
N1016     Mn1020   2.154   1_655  S
N1017      C1022   1.351       .  A
N1018      N1019   1.307   1_655  A
N1018     Mn1032   2.122       .  S
N1019      C1021   1.335       .  A
Mn1020    Cl1033   2.485   1_565  S
C1021      C1322   1.485       .  S
C1022      C1549   1.465       .  S
N1023      N1024   1.349       .  A
N1023      N1029   1.312       .  A
N1023     Mn1031   2.359   1_655  S
N1024      C1034   1.387       .  A
N1025      N1026   1.310       .  A
N1025      N1027   1.313       .  A
N1025     Mn1032   2.131       .  S
N1026      C1035   1.338       .  A
N1027      N1028   1.337   1_655  A
N1027     Mn1031   2.299   1_655  S
N1028      C1035   1.371   1_455  A
N1029      N1030   1.301       .  A
N1029     Mn1032   2.084       .  S
N1030      C1034   1.322       .  A
Mn1031    Cl1033   2.446       .  S
Mn1032    Cl1033   2.542   1_655  S
C1034      C1229   1.507       .  S
C1035      C1245   1.489   1_655  S
N1036      N1037   1.309       .  A
N1036      N1042   1.315       .  A
N1036     Mn1065   2.156       .  S
N1037      C1044   1.343       .  A
N1038      N1040   1.308   1_655  A
N1038      N1039   1.325       .  A
N1038     Mn1054   2.182       .  S
N1039      C1045   1.356       .  A
N1040      N1041   1.300       .  A
N1040     Mn1065   2.108       .  S
N1041      C1045   1.329   1_455  A
N1042      N1043   1.327       .  A
N1042     Mn1054   2.221   1_455  S
N1043      C1044   1.357       .  A
C1044      C1453   1.473   1_545  S
C1045      C1341   1.457       .  S
N1046      N1052   1.306       .  A
N1046      N1047   1.305       .  A
N1046     Mn1076   2.128       .  S
N1047      C1055   1.339       .  A
N1048      N1049   1.322       .  A
N1048      N1050   1.306       .  A
N1048     Mn1054   2.203   1_565  S
N1049      C1056   1.359       .  A
N1050      N1051   1.306       .  A
N1050     Mn1076   2.094   1_565  S
N1051      C1056   1.329       .  A
N1052      N1053   1.331       .  A
N1052     Mn1054   2.223       .  S
N1053      C1055   1.365       .  A
Mn1054    Cl1078   2.577       .  S
C1055      C1565   1.493       .  S
C1056      C1690   1.440       .  S
N1057      N1058   1.311       .  A
N1057      N1063   1.321       .  A
N1057     Mn1065   2.200       .  S
N1058      C1066   1.338       .  A
N1059      N1061   1.317       .  A
N1059      N1060   1.343       .  A
N1059     Mn1077   2.342       .  S
N1060      C1067   1.379       .  A
N1061      N1062   1.308       .  A
N1061     Mn1065   2.110       .  S
N1062      C1067   1.328       .  A
N1063      N1064   1.341       .  A
N1063     Mn1077   2.294       .  S
N1064      C1066   1.373       .  A
Mn1065    Cl1078   2.475   1_455  S
C1066      C1149   1.509       .  S
C1067      C1162   1.500       .  S
N1068      N1069   1.305       .  A
N1068      N1074   1.320       .  A
N1068     Mn1076   2.149   1_565  S
N1069      C1079   1.333       .  A
N1070      N1071   1.351       .  A
N1070      N1072   1.306       .  A
N1070     Mn1077   2.344   1_655  S
N1071      C1080   1.388       .  A
N1072      N1073   1.293       .  A
N1072     Mn1076   2.035       .  S
N1073      C1080   1.312       .  A
N1074      N1075   1.347   1_655  A
N1074     Mn1077   2.350   1_665  S
N1075      C1079   1.384   1_455  A
Mn1076    Cl1078   2.471       .  S
Mn1077    Cl1078   2.585   1_455  S
C1079      C1181   1.523   1_655  S
C1080      C1133   1.495       .  S
C1081      C1082   1.390       .  D
C1081      C2394   1.546       .  S
C1081      C2461   1.541       .  S
C1082      C1242   1.529       .  S
C1082      C1306   1.527       .  S
C1083      C1084   1.389       .  D
C1083      C1757   1.539       .  S
C1083      C1885   1.523       .  S
C1084      C1226   1.541       .  S
C1084      C1485   1.552       .  S
C1085      C1086   1.383       .  D
C1085      C1210   1.546   1_655  S
C1085      C1594   1.539   1_655  S
C1086      C2330   1.513       .  S
C1086      C2445   1.529       .  S
C1087      C1088   1.413       .  D
C1087      C1194   1.567       .  S
C1087      C1402   1.539       .  S
C1088      C1818   1.562       .  S
C1088      C1869   1.574       .  S
C1089      C1090   1.391       .  D
C1089      C2909   1.576       .  S
C1089      C3338   1.562       .  S
C1090      C1290   1.535       .  S
C1090      C1370   1.542       .  S
C1091      C1092   1.383       .  D
C1091      C3037   1.513       .  S
C1091      C3357   1.523       .  S
C1092      C1277   1.534       .  S
C1092      C1469   1.530       .  S
C1093      C1094   1.398       .  D
C1093      C2893   1.543       .  S
C1093      C3117   1.547       .  S
C1094      C1389   1.553       .  S
C1094      C1578   1.542       .  S
C1095      C1096   1.391       .  D
C1095      C1805   1.555       .  S
C1095      C2061   1.574       .  S
C1096      C1165   1.541       .  S
C1096      C1354   1.527       .  S
C1097      C1098   1.400       .  D
C1097      C2381   1.557       .  S
C1097      C2554   1.545       .  S
C1098      C1789   1.544       .  S
C1098      C1949   1.572       .  S
C1099      C1100   1.402   1_556  D
C1099      C2301   1.553       .  S
C1099      C2541   1.539       .  S
C1100      C1773   1.557       .  S
C1100      C2154   1.564       .  S
C1101      C1102   1.381       .  D
C1101      C3133   1.522       .  S
C1101      C3245   1.534       .  S
C1102      C1853   1.535       .  S
C1102      C2189   1.525       .  S
C1103      C1104   1.388       .  D
C1103      C3229   1.543       .  S
C1103      C3325   1.540       .  S
C1104      C1834   1.527       .  S
C1104      C1981   1.532       .  S
C1105      C1106   1.386       .  D
C1105      C2973   1.524       .  S
C1105      C3309   1.533       .  S
C1106      C1965   1.520       .  S
C1106      C2077   1.522       .  S
C1107      C1108   1.386       .  D
C1107      C2362   1.530       .  S
C1107      C2637   1.530       .  S
C1108      C1146   1.540       .  S
C1108      C1261   1.535       .  S
C1109      C1110   1.380       .  D
C1109      C2346   1.534       .  S
C1109      C2733   1.541       .  S
C1110      C1709   1.530       .  S
C1110      C1933   1.520       .  S
C1111      C1112   1.378       .  D
C1111      C2874   1.541       .  S
C1111      C3210   1.547       .  S
C1112      C2426   1.534       .  S
C1112      C2525   1.523       .  S
C1113      C1114   1.394       .  D
C1113      C3050   1.540       .  S
C1113      C3197   1.540       .  S
C1114      C2413   1.564       .  S
C1114      C2765   1.570       .  S
C1115      C1116   1.396       .  D
C1115      C2861   1.550       .  S
C1115      C2957   1.548       .  S
C1116      C2509   1.562       .  S
C1116      C2618   1.567       .  S
C1117      C1118   1.389       .  D
C1117      C2314   1.541       .  S
C1117      C2650   1.536       .  S
C1118      C1178   1.528       .  S
C1118      C1613   1.547       .  S
C1119      C1120   1.394       .  D
C1119      C1738   1.552       .  S
C1119      C2045   1.540       .  S
C1120      C1130   1.532       .  S
C1120      C1501   1.556       .  S
C1121      C1122   1.384       .  D
C1121      C1722   1.524       .  S
C1121      C2170   1.533       .  S
C1122      C2285   1.542       .  S
C1122      C2749   1.522       .  S
C1123      C1124   1.389       .  D
C1123      C2938   1.548       .  S
C1123      C3021   1.539       .  S
C1124      C2669   1.536       .  S
C1124      C2781   1.539       .  S
C1125      C1126   1.393       .  D
C1125      C3005   1.551       .  S
C1125      C3085   1.560       .  S
C1126      C1517   1.559       .  S
C1126      C1626   1.577       .  S
C1127      C1128   1.398       .  D
C1127      C2925   1.555       .  S
C1127      C3098   1.534       .  S
C1128      C2093   1.570       .  S
C1128      C2205   1.539       .  S
C1129      C1130   1.405       .  A
C1129      C1134   1.411       .  A
C1129      H1136   1.082       .  S
C1130      C1131   1.425       .  A
C1131      C1132   1.428       .  A
C1131      C1138   1.502       .  S
C1132      C1133   1.413       .  A
C1132      H1137   1.084       .  S
C1133      C1134   1.423       .  A
C1134      C1135   1.511       .  S
C1135      H1139   1.111   1_545  S
C1135      H1140   1.109       .  S
C1135      H1141   1.108   1_545  S
C1138      H1142   1.106       .  S
C1138      H1143   1.110       .  S
C1138      H1144   1.110       .  S
C1145      C1146   1.409       .  A
C1145      C1150   1.412       .  A
C1145      H1152   1.078       .  S
C1146      C1147   1.426   1_455  A
C1147      C1148   1.428       .  A
C1147      C1154   1.505       .  S
C1148      C1149   1.411   1_655  A
C1148      H1153   1.084       .  S
C1149      C1150   1.416       .  A
C1150      C1151   1.508       .  S
C1151      H1155   1.111       .  S
C1151      H1156   1.109       .  S
C1151      H1157   1.110       .  S
C1154      H1158   1.105       .  S
C1154      H1159   1.107       .  S
C1154      H1160   1.111       .  S
C1161      C1162   1.398       .  A
C1161      C1166   1.417       .  A
C1161      H1168   1.085   1_545  S
C1162      C1163   1.424       .  A
C1163      C1164   1.419       .  A
C1163      C1170   1.508       .  S
C1164      C1165   1.406       .  A
C1164      H1169   1.083       .  S
C1165      C1166   1.434       .  A
C1166      C1167   1.494   1_545  S
C1167      H1171   1.103       .  S
C1167      H1172   1.110       .  S
C1167      H1173   1.088       .  S
C1170      H1174   1.110       .  S
C1170      H1175   1.109       .  S
C1170      H1176   1.111       .  S
C1177      C1178   1.422       .  A
C1177      C1182   1.428       .  A
C1177      H1184   1.080       .  S
C1178      C1179   1.412   1_455  A
C1179      C1180   1.406       .  A
C1179      C1186   1.507       .  S
C1180      C1181   1.417   1_655  A
C1180      H1185   1.084       .  S
C1181      C1182   1.414       .  A
C1182      C1183   1.502       .  S
C1183      H1187   1.111       .  S
C1183      H1188   1.110       .  S
C1183      H1189   1.110       .  S
C1186      H1190   1.110       .  S
C1186      H1191   1.104       .  S
C1186      H1192   1.109       .  S
C1193      C1194   1.418       .  A
C1193      C1198   1.415       .  A
C1193      H1200   1.079       .  S
C1194      C1195   1.431       .  A
C1195      C1196   1.423       .  A
C1195      C1202   1.499       .  S
C1196      C1197   1.404       .  A
C1196      H1201   1.083       .  S
C1197      C1198   1.417       .  A
C1198      C1199   1.508       .  S
C1199      H1203   1.110       .  S
C1199      H1204   1.106       .  S
C1199      H1205   1.110       .  S
C1202      H1206   1.106       .  S
C1202      H1207   1.109       .  S
C1202      H1208   1.110       .  S
C1209      C1210   1.425   1_655  A
C1209      C1214   1.436       .  A
C1209      H1216   1.081       .  S
C1210      C1211   1.419       .  A
C1211      C1212   1.404       .  A
C1211      C1218   1.500       .  S
C1212      C1213   1.413       .  A
C1212      H1217   1.084       .  S
C1213      C1214   1.417   1_455  A
C1214      C1215   1.501       .  S
C1215      H1219   1.111       .  S
C1215      H1220   1.110       .  S
C1215      H1221   1.110       .  S
C1218      H1222   1.109       .  S
C1218      H1223   1.093       .  S
C1218      H1224   1.109       .  S
C1225      C1226   1.406   1_545  A
C1225      C1230   1.412       .  A
C1225      H1232   1.076       .  S
C1226      C1227   1.424       .  A
C1227      C1228   1.432       .  A
C1227      C1234   1.502       .  S
C1228      C1229   1.414   1_565  A
C1228      H1233   1.083       .  S
C1229      C1230   1.421       .  A
C1230      C1231   1.512       .  S
C1231      H1235   1.111       .  S
C1231      H1236   1.109       .  S
C1231      H1237   1.108       .  S
C1234      H1238   1.103       .  S
C1234      H1239   1.109       .  S
C1234      H1240   1.111       .  S
C1241      C1242   1.414   1_455  A
C1241      C1246   1.419       .  A
C1241      H1248   1.081       .  S
C1242      C1243   1.424       .  A
C1243      C1244   1.406       .  A
C1243      C1250   1.498       .  S
C1244      C1245   1.399   1_655  A
C1244      H1249   1.085       .  S
C1245      C1246   1.414       .  A
C1246      C1247   1.506       .  S
C1247      H1251   1.111       .  S
C1247      H1252   1.110       .  S
C1247      H1253   1.110       .  S
C1250      H1254   1.110       .  S
C1250      H1255   1.093       .  S
C1250      H1256   1.110       .  S
C1257      C1258   1.420       .  A
C1257      C1262   1.407       .  A
C1257      H1264   1.084       .  S
C1258      C1259   1.419   1_455  A
C1259      C1260   1.438       .  A
C1259      C1266   1.502       .  S
C1260      C1261   1.424   1_655  A
C1260      H1265   1.080       .  S
C1261      C1262   1.412       .  A
C1262      C1263   1.509       .  S
C1263      H1267   1.110       .  S
C1263      H1268   1.106       .  S
C1263      H1269   1.098       .  S
C1266      H1270   1.110       .  S
C1266      H1271   1.110       .  S
C1266      H1272   1.111       .  S
C1273      C1274   1.404       .  A
C1273      C1278   1.415       .  A
C1273      H1280   1.085       .  S
C1274      C1275   1.416       .  A
C1275      C1276   1.420       .  A
C1275      C1282   1.504       .  S
C1276      C1277   1.409       .  A
C1276      H1281   1.083       .  S
C1277      C1278   1.429       .  A
C1278      C1279   1.505       .  S
C1279      H1283   1.110       .  S
C1279      H1284   1.110       .  S
C1279      H1285   1.103       .  S
C1282      H1286   1.110       .  S
C1282      H1287   1.109       .  S
C1282      H1288   1.110       .  S
C1289      C1290   1.399       .  A
C1289      C1294   1.403       .  A
C1289      H1296   1.077       .  S
C1290      C1291   1.431       .  A
C1291      C1292   1.430       .  A
C1291      C1298   1.498       .  S
C1292      C1293   1.408       .  A
C1292      H1297   1.083       .  S
C1293      C1294   1.425       .  A
C1294      C1295   1.510       .  S
C1295      H1299   1.109       .  S
C1295      H1300   1.111       .  S
C1295      H1301   1.110       .  S
C1298      H1302   1.102       .  S
C1298      H1303   1.111       .  S
C1298      H1304   1.110       .  S
C1305      C1306   1.413   1_455  A
C1305      C1310   1.419       .  A
C1305      H1312   1.078       .  S
C1306      C1307   1.420       .  A
C1307      C1308   1.411       .  A
C1307      C1314   1.503       .  S
C1308      C1309   1.404   1_655  A
C1308      H1313   1.085       .  S
C1309      C1310   1.413       .  A
C1310      C1311   1.505       .  S
C1311      H1315   1.111       .  S
C1311      H1316   1.111       .  S
C1311      H1317   1.110       .  S
C1314      H1318   1.109       .  S
C1314      H1319   1.104       .  S
C1314      H1320   1.111       .  S
C1321      C1322   1.404       .  A
C1321      C1326   1.403       .  A
C1321      H1328   1.063       .  S
C1322      C1323   1.424       .  A
C1323      C1324   1.392       .  A
C1323      C1330   1.508       .  S
C1324      C1325   1.400       .  A
C1324      H1329   1.084       .  S
C1325      C1326   1.403       .  A
C1326      C1327   1.504       .  S
C1327      H1331   1.110       .  S
C1327      H1332   1.108       .  S
C1327      H1333   1.111       .  S
C1330      H1334   1.109   1_455  S
C1330      H1335   1.103       .  S
C1330      H1336   1.112       .  S
C1337      C1338   1.385       .  A
C1337      C1342   1.392   1_655  A
C1337      H1344   1.075   1_655  S
C1338      C1339   1.401       .  A
C1339      C1340   1.403       .  A
C1339      C1346   1.496       .  S
C1340      C1341   1.408       .  A
C1340      H1345   1.081       .  S
C1341      C1342   1.430   1_655  A
C1342      C1343   1.512       .  S
C1343      H1347   1.107       .  S
C1343      H1348   1.110       .  S
C1343      H1349   1.096       .  S
C1346      H1350   1.108       .  S
C1346      H1351   1.110       .  S
C1346      H1352   1.107       .  S
C1353      C1354   1.393       .  A
C1353      C1358   1.403       .  A
C1353      H1360   1.074   1_545  S
C1354      C1355   1.426       .  A
C1355      C1356   1.427       .  A
C1355      C1362   1.503       .  S
C1356      C1357   1.411       .  A
C1356      H1361   1.083       .  S
C1357      C1358   1.437       .  A
C1358      C1359   1.520   1_545  S
C1359      H1363   1.111       .  S
C1359      H1364   1.111       .  S
C1359      H1365   1.099       .  S
C1362      H1366   1.110       .  S
C1362      H1367   1.108       .  S
C1362      H1368   1.110       .  S
C1369      C1370   1.401       .  A
C1369      C1374   1.415       .  A
C1369      H1376   1.081       .  S
C1370      C1371   1.430       .  A
C1371      C1372   1.430       .  A
C1371      C1378   1.501       .  S
C1372      C1373   1.410       .  A
C1372      H1377   1.084       .  S
C1373      C1374   1.421       .  A
C1374      C1375   1.509       .  S
C1375      H1379   1.109       .  S
C1375      H1380   1.110       .  S
C1375      H1381   1.109       .  S
C1378      H1382   1.104       .  S
C1378      H1383   1.108       .  S
C1378      H1384   1.111       .  S
C1385      C1386   1.410       .  A
C1385      C1390   1.415       .  A
C1385      H1392   1.086       .  S
C1386      C1387   1.422       .  A
C1387      C1388   1.433       .  A
C1387      C1394   1.504       .  S
C1388      C1389   1.418       .  A
C1388      H1393   1.083       .  S
C1389      C1390   1.429       .  A
C1390      C1391   1.505       .  S
C1391      H1395   1.111       .  S
C1391      H1396   1.109       .  S
C1391      H1397   1.099       .  S
C1394      H1398   1.110       .  S
C1394      H1399   1.110       .  S
C1394      H1400   1.110       .  S
C1401      C1402   1.411       .  A
C1401      C1406   1.420       .  A
C1401      H1408   1.083       .  S
C1402      C1403   1.436       .  A
C1403      C1404   1.416       .  A
C1403      C1410   1.513       .  S
C1404      C1405   1.399       .  A
C1404      H1409   1.084       .  S
C1405      C1406   1.416       .  A
C1406      C1407   1.504       .  S
C1407      H1411   1.111       .  S
C1407      H1412   1.110       .  S
C1407      H1413   1.110       .  S
C1410      H1414   1.100   1_545  S
C1410      H1415   1.103       .  S
C1410      H1416   1.107   1_545  S
C1417      C1418   1.405       .  A
C1417      C1422   1.405       .  A
C1417      H1424   1.083       .  S
C1418      C1419   1.403       .  A
C1419      C1420   1.396       .  A
C1419      C1426   1.502       .  S
C1420      C1421   1.406       .  A
C1420      H1425   1.084       .  S
C1421      C1422   1.413       .  A
C1422      C1423   1.505       .  S
C1423      H1427   1.106       .  S
C1423      H1428   1.109       .  S
C1423      H1429   1.111       .  S
C1426      H1430   1.111       .  S
C1426      H1431   1.111       .  S
C1426      H1432   1.110       .  S
C1433      C1434   1.403   1_565  A
C1433      C1438   1.400       .  A
C1433      H1440   1.084       .  S
C1434      C1435   1.382       .  A
C1435      C1436   1.389       .  A
C1435      C1442   1.509       .  S
C1436      C1437   1.411       .  A
C1436      H1441   1.080       .  S
C1437      C1438   1.410   1_545  A
C1438      C1439   1.503       .  S
C1439      H1443   1.111       .  S
C1439      H1444   1.110       .  S
C1439      H1445   1.110       .  S
C1442      H1446   1.107       .  S
C1442      H1447   1.111       .  S
C1442      H1448   1.102       .  S
C1449      C1450   1.411       .  A
C1449      C1454   1.408       .  A
C1449      H1456   1.084       .  S
C1450      C1451   1.398       .  A
C1451      C1452   1.395       .  A
C1451      C1458   1.494       .  S
C1452      C1453   1.408       .  A
C1452      H1457   1.085       .  S
C1453      C1454   1.411       .  A
C1454      C1455   1.504       .  S
C1455      H1459   1.110       .  S
C1455      H1460   1.110       .  S
C1455      H1461   1.105       .  S
C1458      H1462   1.109       .  S
C1458      H1463   1.111       .  S
C1458      H1464   1.110       .  S
C1465      C1466   1.414       .  A
C1465      C1470   1.404       .  A
C1465      H1472   1.083       .  S
C1466      C1467   1.412       .  A
C1467      C1468   1.426       .  A
C1467      C1474   1.502       .  S
C1468      C1469   1.422       .  A
C1468      H1473   1.081       .  S
C1469      C1470   1.414       .  A
C1470      C1471   1.507       .  S
C1471      H1475   1.111       .  S
C1471      H1476   1.108       .  S
C1471      H1477   1.103       .  S
C1474      H1478   1.110       .  S
C1474      H1479   1.110       .  S
C1474      H1480   1.111       .  S
C1481      C1482   1.412       .  A
C1481      C1486   1.422       .  A
C1481      H1488   1.084       .  S
C1482      C1483   1.423   1_545  A
C1483      C1484   1.434       .  A
C1483      C1490   1.504       .  S
C1484      C1485   1.417       .  A
C1484      H1489   1.082       .  S
C1485      C1486   1.425   1_565  A
C1486      C1487   1.504       .  S
C1487      H1491   1.111       .  S
C1487      H1492   1.101       .  S
C1487      H1493   1.108       .  S
C1490      H1494   1.110       .  S
C1490      H1495   1.111       .  S
C1490      H1496   1.111       .  S
C1497      C1498   1.414       .  A
C1497      C1502   1.411       .  A
C1497      H1504   1.086       .  S
C1498      C1499   1.421       .  A
C1499      C1500   1.441       .  A
C1499      C1506   1.502       .  S
C1500      C1501   1.424       .  A
C1500      H1505   1.080       .  S
C1501      C1502   1.421       .  A
C1502      C1503   1.505       .  S
C1503      H1507   1.110   1_545  S
C1503      H1508   1.108   1_545  S
C1503      H1509   1.105       .  S
C1506      H1510   1.110       .  S
C1506      H1511   1.111       .  S
C1506      H1512   1.111       .  S
C1513      C1514   1.420       .  A
C1513      C1518   1.415       .  A
C1513      H1520   1.083       .  S
C1514      C1515   1.419       .  A
C1515      C1516   1.443       .  A
C1515      C1522   1.502       .  S
C1516      C1517   1.427       .  A
C1516      H1521   1.083       .  S
C1517      C1518   1.423       .  A
C1518      C1519   1.506       .  S
C1519      H1523   1.109       .  S
C1519      H1524   1.102       .  S
C1519      H1525   1.110       .  S
C1522      H1526   1.110       .  S
C1522      H1527   1.110       .  S
C1522      H1528   1.110       .  S
C1529      C1530   1.408       .  A
C1529      C1534   1.389       .  A
C1529      H1536   1.084       .  S
C1530      C1531   1.414       .  A
C1531      C1532   1.390       .  A
C1531      C1538   1.509       .  S
C1532      C1533   1.401       .  A
C1532      H1537   1.083       .  S
C1533      C1534   1.399       .  A
C1534      C1535   1.501       .  S
C1535      H1539   1.110       .  S
C1535      H1540   1.107       .  S
C1535      H1541   1.109       .  S
C1538      H1542   1.110       .  S
C1538      H1543   1.108       .  S
C1538      H1544   1.110       .  S
C1545      C1546   1.398       .  A
C1545      C1550   1.396       .  A
C1545      H1552   1.084       .  S
C1546      C1547   1.433       .  A
C1547      C1548   1.389       .  A
C1547      C1554   1.510   1_565  S
C1548      C1549   1.389       .  A
C1548      H1553   1.084       .  S
C1549      C1550   1.398       .  A
C1550      C1551   1.487       .  S
C1551      H1555   1.108       .  S
C1551      H1556   1.110       .  S
C1551      H1557   1.111       .  S
C1554      H1558   1.110       .  S
C1554      H1559   1.100       .  S
C1554      H1560   1.111       .  S
C1561      C1562   1.408       .  A
C1561      C1566   1.402       .  A
C1561      H1568   1.080       .  S
C1562      C1563   1.417       .  A
C1563      C1564   1.410       .  A
C1563      C1570   1.503       .  S
C1564      C1565   1.407       .  A
C1564      H1569   1.081       .  S
C1565      C1566   1.392       .  A
C1566      C1567   1.490       .  S
C1567      H1571   1.107       .  S
C1567      H1572   1.104       .  S
C1567      H1573   1.110       .  S
C1570      H1574   1.106       .  S
C1570      H1575   1.104       .  S
C1570      H1576   1.110       .  S
C1577      C1578   1.426       .  A
C1577      C1582   1.437       .  A
C1577      H1584   1.083       .  S
C1578      C1579   1.416       .  A
C1579      C1580   1.406       .  A
C1579      C1586   1.509       .  S
C1580      C1581   1.416       .  A
C1580      H1585   1.086       .  S
C1581      C1582   1.417       .  A
C1582      C1583   1.501       .  S
C1583      H1587   1.111       .  S
C1583      H1588   1.111       .  S
C1583      H1589   1.110       .  S
C1586      H1590   1.109       .  S
C1586      H1591   1.100       .  S
C1586      H1592   1.108       .  S
C1593      C1594   1.425       .  A
C1593      C1598   1.427       .  A
C1593      H1600   1.079       .  S
C1594      C1595   1.413   1_455  A
C1595      C1596   1.407       .  A
C1595      C1602   1.502       .  S
C1596      C1597   1.413   1_655  A
C1596      H1601   1.085       .  S
C1597      C1598   1.410       .  A
C1598      C1599   1.503       .  S
C1599      H1603   1.111       .  S
C1599      H1604   1.111       .  S
C1599      H1605   1.110       .  S
C1602      H1606   1.092       .  S
C1602      H1607   1.105       .  S
C1602      H1608   1.111       .  S
C1609      C1610   1.417       .  A
C1609      C1614   1.410       .  A
C1609      H1616   1.082       .  S
C1610      C1611   1.419   1_455  A
C1611      C1612   1.436       .  A
C1611      C1618   1.502       .  S
C1612      C1613   1.426   1_655  A
C1612      H1617   1.082       .  S
C1613      C1614   1.415       .  A
C1614      C1615   1.506       .  S
C1615      H1619   1.110       .  S
C1615      H1620   1.109       .  S
C1615      H1621   1.107       .  S
C1618      H1622   1.110       .  S
C1618      H1623   1.110       .  S
C1618      H1624   1.111       .  S
C1625      C1626   1.406       .  A
C1625      C1630   1.419       .  A
C1625      H1632   1.077       .  S
C1626      C1627   1.440       .  A
C1627      C1628   1.449       .  A
C1627      C1634   1.496       .  S
C1628      C1629   1.415       .  A
C1628      H1633   1.083       .  S
C1629      C1630   1.435       .  A
C1630      C1631   1.509       .  S
C1631      H1635   1.111       .  S
C1631      H1636   1.109       .  S
C1631      H1637   1.111       .  S
C1634      H1638   1.108       .  S
C1634      H1639   1.103       .  S
C1634      H1640   1.110       .  S
C1641      C1642   1.394       .  A
C1641      C1646   1.388       .  A
C1641      H1648   1.082       .  S
C1642      C1643   1.426       .  A
C1643      C1644   1.359       .  A
C1643      C1650   1.519       .  S
C1644      C1645   1.376       .  A
C1644      H1649   1.086       .  S
C1645      C1646   1.405       .  A
C1646      C1647   1.506       .  S
C1647      H1651   1.111       .  S
C1647      H1652   1.110       .  S
C1647      H1653   1.110       .  S
C1650      H1654   1.104       .  S
C1650      H1655   1.108       .  S
C1650      H1656   1.112       .  S
C1657      C1658   1.405       .  A
C1657      C1662   1.403       .  A
C1657      H1664   1.084       .  S
C1658      C1659   1.399       .  A
C1659      C1660   1.390       .  A
C1659      C1666   1.501       .  S
C1660      C1661   1.407       .  A
C1660      H1665   1.081       .  S
C1661      C1662   1.413       .  A
C1662      C1663   1.499       .  S
C1663      H1667   1.110       .  S
C1663      H1668   1.104       .  S
C1663      H1669   1.106       .  S
C1666      H1670   1.110       .  S
C1666      H1671   1.111       .  S
C1666      H1672   1.109       .  S
C1673      C1674   1.397   1_655  A
C1673      C1678   1.388       .  A
C1673      H1680   1.080       .  S
C1674      C1675   1.405       .  A
C1675      C1676   1.392       .  A
C1675      C1682   1.501       .  S
C1676      C1677   1.398   1_455  A
C1676      H1681   1.084       .  S
C1677      C1678   1.412       .  A
C1678      C1679   1.509       .  S
C1679      H1683   1.110       .  S
C1679      H1684   1.104       .  S
C1679      H1685   1.109       .  S
C1682      H1686   1.111       .  S
C1682      H1687   1.109       .  S
C1682      H1688   1.110       .  S
C1689      C1690   1.399       .  A
C1689      C1694   1.390       .  A
C1689      H1696   1.084       .  S
C1690      C1691   1.412   1_655  A
C1691      C1692   1.393       .  A
C1691      C1698   1.501       .  S
C1692      C1693   1.393       .  A
C1692      H1697   1.085       .  S
C1693      C1694   1.401   1_455  A
C1694      C1695   1.501       .  S
C1695      H1699   1.109       .  S
C1695      H1700   1.110       .  S
C1695      H1701   1.107       .  S
C1698      H1702   1.108       .  S
C1698      H1703   1.106       .  S
C1698      H1704   1.111       .  S
C1705      C1706   1.409       .  A
C1705      C1710   1.410       .  A
C1705      H1712   1.084       .  S
C1706      C1707   1.414       .  A
C1707      C1708   1.419   1_554  A
C1707      C1714   1.505   1_554  S
C1708      C1709   1.418   1_556  A
C1708      H1713   1.076       .  S
C1709      C1710   1.416       .  A
C1710      C1711   1.504       .  S
C1711      H1715   1.111       .  S
C1711      H1716   1.107       .  S
C1711      H1717   1.107       .  S
C1714      H1718   1.110       .  S
C1714      H1719   1.110       .  S
C1714      H1720   1.111       .  S
C1721      C1722   1.415   1_554  A
C1721      C1726   1.417       .  A
C1721      H1728   1.075       .  S
C1722      C1723   1.419       .  A
C1723      C1724   1.413       .  A
C1723      C1730   1.505       .  S
C1724      C1725   1.408       .  A
C1724      H1729   1.085       .  S
C1725      C1726   1.411   1_556  A
C1726      C1727   1.506       .  S
C1727      H1731   1.111       .  S
C1727      H1732   1.111       .  S
C1727      H1733   1.110       .  S
C1730      H1734   1.103       .  S
C1730      H1735   1.110       .  S
C1730      H1736   1.110       .  S
C1737      C1738   1.416       .  A
C1737      C1742   1.417       .  A
C1737      H1744   1.077       .  S
C1738      C1739   1.419       .  A
C1739      C1740   1.428       .  A
C1739      C1746   1.504       .  S
C1740      C1741   1.417       .  A
C1740      H1745   1.084       .  S
C1741      C1742   1.416       .  A
C1742      C1743   1.509       .  S
C1743      H1747   1.110   1_545  S
C1743      H1748   1.110       .  S
C1743      H1749   1.110       .  S
C1746      H1750   1.110       .  S
C1746      H1751   1.108       .  S
C1746      H1752   1.110       .  S
C1753      C1754   1.412       .  A
C1753      C1758   1.426       .  A
C1753      H1760   1.084       .  S
C1754      C1755   1.421   1_565  A
C1755      C1756   1.414       .  A
C1755      C1762   1.510       .  S
C1756      C1757   1.407   1_545  A
C1756      H1761   1.081       .  S
C1757      C1758   1.422       .  A
C1758      C1759   1.503       .  S
C1759      H1763   1.111       .  S
C1759      H1764   1.110       .  S
C1759      H1765   1.103       .  S
C1762      H1766   1.109       .  S
C1762      H1767   1.110       .  S
C1762      H1768   1.110       .  S
C1769      C1770   1.414   1_554  A
C1769      C1774   1.436       .  A
C1769      H1776   1.083       .  S
C1770      C1771   1.420       .  A
C1771      C1772   1.408       .  A
C1771      C1778   1.510       .  S
C1772      C1773   1.408   1_556  A
C1772      H1777   1.076       .  S
C1773      C1774   1.434       .  A
C1774      C1775   1.499       .  S
C1775      H1779   1.108       .  S
C1775      H1780   1.102       .  S
C1775      H1781   1.111       .  S
C1778      H1782   1.110       .  S
C1778      H1783   1.109       .  S
C1778      H1784   1.107       .  S
C1785      C1786   1.415       .  A
C1785      C1790   1.437       .  A
C1785      H1792   1.083       .  S
C1786      C1787   1.428   1_556  A
C1787      C1788   1.407   1_554  A
C1787      C1794   1.515       .  S
C1788      C1789   1.395       .  A
C1788      H1793   1.075   1_556  S
C1789      C1790   1.432       .  A
C1790      C1791   1.504       .  S
C1791      H1795   1.110       .  S
C1791      H1796   1.109       .  S
C1791      H1797   1.110       .  S
C1794      H1798   1.106       .  S
C1794      H1799   1.110       .  S
C1794      H1800   1.111       .  S
C1801      C1802   1.409       .  A
C1801      C1806   1.408       .  A
C1801      H1808   1.086   1_545  S
C1802      C1803   1.423       .  A
C1803      C1804   1.442       .  A
C1803      C1810   1.500       .  S
C1804      C1805   1.424       .  A
C1804      H1809   1.083       .  S
C1805      C1806   1.425       .  A
C1806      C1807   1.504   1_545  S
C1807      H1811   1.107       .  S
C1807      H1812   1.091       .  S
C1807      H1813   1.102       .  S
C1810      H1814   1.110       .  S
C1810      H1815   1.110       .  S
C1810      H1816   1.111       .  S
C1817      C1818   1.405       .  A
C1817      C1822   1.421       .  A
C1817      H1824   1.082       .  S
C1818      C1819   1.443       .  A
C1819      C1820   1.435       .  A
C1819      C1826   1.499   1_545  S
C1820      C1821   1.406       .  A
C1820      H1825   1.084   1_545  S
C1821      C1822   1.437       .  A
C1822      C1823   1.511       .  S
C1823      H1827   1.111       .  S
C1823      H1828   1.109       .  S
C1823      H1829   1.110       .  S
C1826      H1830   1.111   1_565  S
C1826      H1831   1.092   1_565  S
C1826      H1832   1.110       .  S
C1833      C1834   1.403       .  A
C1833      C1838   1.414       .  A
C1833      H1840   1.081       .  S
C1834      C1835   1.425       .  A
C1835      C1836   1.421       .  A
C1835      C1842   1.501       .  S
C1836      C1837   1.404       .  A
C1836      H1841   1.084       .  S
C1837      C1838   1.422       .  A
C1838      C1839   1.508       .  S
C1839      H1843   1.111       .  S
C1839      H1844   1.109       .  S
C1839      H1845   1.110       .  S
C1842      H1846   1.109       .  S
C1842      H1847   1.105       .  S
C1842      H1848   1.111       .  S
C1849      C1850   1.420       .  A
C1849      C1854   1.401       .  A
C1849      H1856   1.080       .  S
C1850      C1851   1.417       .  A
C1851      C1852   1.438       .  A
C1851      C1858   1.501       .  S
C1852      C1853   1.426       .  A
C1852      H1857   1.080       .  S
C1853      C1854   1.407       .  A
C1854      C1855   1.507       .  S
C1855      H1859   1.110       .  S
C1855      H1860   1.093       .  S
C1855      H1861   1.106       .  S
C1858      H1862   1.110       .  S
C1858      H1863   1.110       .  S
C1858      H1864   1.111       .  S
C1865      C1866   1.423       .  A
C1865      C1870   1.416       .  A
C1865      H1872   1.083       .  S
C1866      C1867   1.423       .  A
C1867      C1868   1.451       .  A
C1867      C1874   1.498       .  S
C1868      C1869   1.432       .  A
C1868      H1873   1.081       .  S
C1869      C1870   1.419       .  A
C1870      C1871   1.501   1_545  S
C1871      H1875   1.111       .  S
C1871      H1876   1.101       .  S
C1871      H1877   1.109       .  S
C1874      H1878   1.108       .  S
C1874      H1879   1.110       .  S
C1874      H1880   1.110       .  S
C1881      C1882   1.407       .  A
C1881      C1886   1.423       .  A
C1881      H1888   1.084       .  S
C1882      C1883   1.422   1_565  A
C1883      C1884   1.408       .  A
C1883      C1890   1.511       .  S
C1884      C1885   1.401   1_545  A
C1884      H1889   1.082       .  S
C1885      C1886   1.426       .  A
C1886      C1887   1.503       .  S
C1887      H1891   1.110       .  S
C1887      H1892   1.105       .  S
C1887      H1893   1.110       .  S
C1890      H1894   1.110       .  S
C1890      H1895   1.107       .  S
C1890      H1896   1.111       .  S
C1897      C1898   1.409   1_565  A
C1897      C1902   1.400   1_565  A
C1897      H1904   1.085       .  S
C1898      C1899   1.433       .  A
C1899      C1900   1.409       .  A
C1899      C1906   1.512       .  S
C1900      C1901   1.397       .  A
C1900      H1905   1.082       .  S
C1901      C1902   1.401       .  A
C1902      C1903   1.497   1_545  S
C1903      H1907   1.110       .  S
C1903      H1908   1.106       .  S
C1903      H1909   1.110       .  S
C1906      H1910   1.106       .  S
C1906      H1911   1.110       .  S
C1906      H1912   1.110       .  S
C1913      C1914   1.398       .  A
C1913      C1918   1.398       .  A
C1913      H1920   1.084       .  S
C1914      C1915   1.417       .  A
C1915      C1916   1.397       .  A
C1915      C1922   1.507       .  S
C1916      C1917   1.399       .  A
C1916      H1921   1.085       .  S
C1917      C1918   1.416       .  A
C1918      C1919   1.505       .  S
C1919      H1923   1.110       .  S
C1919      H1924   1.110       .  S
C1919      H1925   1.110       .  S
C1922      H1926   1.111       .  S
C1922      H1927   1.111       .  S
C1922      H1928   1.110       .  S
C1929      C1930   1.405   1_556  A
C1929      C1934   1.405       .  A
C1929      H1936   1.085       .  S
C1930      C1931   1.410       .  A
C1931      C1932   1.418       .  A
C1931      C1938   1.503       .  S
C1932      C1933   1.415       .  A
C1932      H1937   1.081       .  S
C1933      C1934   1.418   1_554  A
C1934      C1935   1.503       .  S
C1935      H1939   1.111       .  S
C1935      H1940   1.110       .  S
C1935      H1941   1.098       .  S
C1938      H1942   1.110       .  S
C1938      H1943   1.110       .  S
C1938      H1944   1.111       .  S
C1945      C1946   1.415       .  A
C1945      C1950   1.406       .  A
C1945      H1952   1.084   1_556  S
C1946      C1947   1.426       .  A
C1947      C1948   1.453       .  A
C1947      C1954   1.501       .  S
C1948      C1949   1.431       .  A
C1948      H1953   1.081       .  S
C1949      C1950   1.421       .  A
C1950      C1951   1.497   1_556  S
C1951      H1955   1.109       .  S
C1951      H1956   1.111       .  S
C1951      H1957   1.090       .  S
C1954      H1958   1.110       .  S
C1954      H1959   1.110       .  S
C1954      H1960   1.110       .  S
C1961      C1962   1.402       .  A
C1961      C1966   1.417       .  A
C1961      H1968   1.084       .  S
C1962      C1963   1.422       .  A
C1963      C1964   1.408       .  A
C1963      C1970   1.509       .  S
C1964      C1965   1.402       .  A
C1964      H1969   1.084       .  S
C1965      C1966   1.427       .  A
C1966      C1967   1.499       .  S
C1967      H1971   1.111       .  S
C1967      H1972   1.099       .  S
C1967      H1973   1.110       .  S
C1970      H1974   1.107       .  S
C1970      H1975   1.110       .  S
C1970      H1976   1.111       .  S
C1977      C1978   1.408       .  A
C1977      C1982   1.403       .  A
C1977      H1984   1.085       .  S
C1978      C1979   1.416       .  A
C1979      C1980   1.430       .  A
C1979      C1986   1.503       .  S
C1980      C1981   1.420       .  A
C1980      H1985   1.083       .  S
C1981      C1982   1.419       .  A
C1982      C1983   1.506       .  S
C1983      H1987   1.110       .  S
C1983      H1988   1.101       .  S
C1983      H1989   1.110       .  S
C1986      H1990   1.110       .  S
C1986      H1991   1.110       .  S
C1986      H1992   1.111       .  S
C1993      C1994   1.395       .  A
C1993      C1998   1.397       .  A
C1993      H2000   1.084       .  S
C1994      C1995   1.406       .  A
C1995      C1996   1.392       .  A
C1995      C2002   1.503       .  S
C1996      C1997   1.401       .  A
C1996      H2001   1.084       .  S
C1997      C1998   1.410       .  A
C1998      C1999   1.499       .  S
C1999      H2003   1.110       .  S
C1999      H2004   1.107       .  S
C1999      H2005   1.102       .  S
C2002      H2006   1.105       .  S
C2002      H2007   1.109       .  S
C2002      H2008   1.111       .  S
C2009      C2010   1.400   1_554  A
C2009      C2014   1.389       .  A
C2009      H2016   1.085       .  S
C2010      C2011   1.408       .  A
C2011      C2012   1.405       .  A
C2011      C2018   1.498       .  S
C2012      C2013   1.406       .  A
C2012      H2017   1.084       .  S
C2013      C2014   1.418   1_556  A
C2014      C2015   1.514       .  S
C2015      H2019   1.111       .  S
C2015      H2020   1.110       .  S
C2015      H2021   1.107       .  S
C2018      H2022   1.106       .  S
C2018      H2023   1.100       .  S
C2018      H2024   1.110       .  S
C2025      C2026   1.400       .  A
C2025      C2030   1.390       .  A
C2025      H2032   1.085       .  S
C2026      C2027   1.405       .  A
C2027      C2028   1.398       .  A
C2027      C2034   1.508       .  S
C2028      C2029   1.407       .  A
C2028      H2033   1.085       .  S
C2029      C2030   1.405       .  A
C2030      C2031   1.503       .  S
C2031      H2035   1.110       .  S
C2031      H2036   1.110       .  S
C2031      H2037   1.107       .  S
C2034      H2038   1.111       .  S
C2034      H2039   1.110       .  S
C2034      H2040   1.111       .  S
C2041      C2042   1.406       .  A
C2041      C2046   1.416       .  A
C2041      H2048   1.085   1_545  S
C2042      C2043   1.416       .  A
C2043      C2044   1.422       .  A
C2043      C2050   1.505       .  S
C2044      C2045   1.416       .  A
C2044      H2049   1.084       .  S
C2045      C2046   1.429       .  A
C2046      C2047   1.505   1_545  S
C2047      H2051   1.110       .  S
C2047      H2052   1.104       .  S
C2047      H2053   1.090       .  S
C2050      H2054   1.110       .  S
C2050      H2055   1.110       .  S
C2050      H2056   1.111       .  S
C2057      C2058   1.416       .  A
C2057      C2062   1.407       .  A
C2057      H2064   1.084       .  S
C2058      C2059   1.427       .  A
C2059      C2060   1.455       .  A
C2059      C2066   1.500       .  S
C2060      C2061   1.433       .  A
C2060      H2065   1.083       .  S
C2061      C2062   1.426       .  A
C2062      C2063   1.501   1_545  S
C2063      H2067   1.101       .  S
C2063      H2068   1.091       .  S
C2063      H2069   1.111       .  S
C2066      H2070   1.110       .  S
C2066      H2071   1.110       .  S
C2066      H2072   1.110       .  S
C2073      C2074   1.407       .  A
C2073      C2078   1.417       .  A
C2073      H2080   1.084       .  S
C2074      C2075   1.412       .  A
C2075      C2076   1.408       .  A
C2075      C2082   1.507       .  S
C2076      C2077   1.409       .  A
C2076      H2081   1.083       .  S
C2077      C2078   1.422       .  A
C2078      C2079   1.505       .  S
C2079      H2083   1.111       .  S
C2079      H2084   1.101       .  S
C2079      H2085   1.103       .  S
C2082      H2086   1.110       .  S
C2082      H2087   1.110       .  S
C2082      H2088   1.111       .  S
C2089      C2090   1.418       .  A
C2089      C2094   1.443       .  A
C2089      H2096   1.083       .  S
C2090      C2091   1.420       .  A
C2091      C2092   1.407       .  A
C2091      C2098   1.515       .  S
C2092      C2093   1.409       .  A
C2092      H2097   1.066       .  S
C2093      C2094   1.434       .  A
C2094      C2095   1.501       .  S
C2095      H2099   1.110       .  S
C2095      H2100   1.110       .  S
C2095      H2101   1.103       .  S
C2098      H2102   1.110       .  S
C2098      H2103   1.107       .  S
C2098      H2104   1.110       .  S
C2105      C2106   1.401       .  A
C2105      C2110   1.389       .  A
C2105      H2112   1.082       .  S
C2106      C2107   1.423       .  A
C2107      C2108   1.395       .  A
C2107      C2114   1.509       .  S
C2108      C2109   1.395       .  A
C2108      H2113   1.083       .  S
C2109      C2110   1.398       .  A
C2110      C2111   1.493       .  S
C2111      H2115   1.110       .  S
C2111      H2116   1.110       .  S
C2111      H2117   1.106       .  S
C2114      H2118   1.104       .  S
C2114      H2119   1.109       .  S
C2114      H2120   1.110       .  S
C2121      C2122   1.390       .  A
C2121      C2126   1.390       .  A
C2121      H2128   1.076       .  S
C2122      C2123   1.410       .  A
C2123      C2124   1.411       .  A
C2123      C2130   1.497       .  S
C2124      C2125   1.408       .  A
C2124      H2129   1.084       .  S
C2125      C2126   1.421       .  A
C2126      C2127   1.519       .  S
C2127      H2131   1.111   1_545  S
C2127      H2132   1.106   1_545  S
C2127      H2133   1.110   1_545  S
C2130      H2134   1.110       .  S
C2130      H2135   1.110       .  S
C2130      H2136   1.105       .  S
C2137      C2138   1.398       .  A
C2137      C2142   1.397   1_565  A
C2137      H2144   1.086       .  S
C2138      C2139   1.401   1_565  A
C2139      C2140   1.387       .  A
C2139      C2146   1.504       .  S
C2140      C2141   1.412       .  A
C2140      H2145   1.084       .  S
C2141      C2142   1.420       .  A
C2142      C2143   1.505       .  S
C2143      H2147   1.110       .  S
C2143      H2148   1.110   1_545  S
C2143      H2149   1.109       .  S
C2146      H2150   1.108   1_545  S
C2146      H2151   1.110       .  S
C2146      H2152   1.110       .  S
C2153      C2154   1.434       .  A
C2153      C2158   1.448       .  A
C2153      H2160   1.076       .  S
C2154      C2155   1.417   1_554  A
C2155      C2156   1.404       .  A
C2155      C2162   1.503       .  S
C2156      C2157   1.423   1_556  A
C2156      H2161   1.082       .  S
C2157      C2158   1.421       .  A
C2158      C2159   1.500       .  S
C2159      H2163   1.110       .  S
C2159      H2164   1.111       .  S
C2159      H2165   1.110       .  S
C2162      H2166   1.111       .  S
C2162      H2167   1.101       .  S
C2162      H2168   1.109       .  S
C2169      C2170   1.412       .  A
C2169      C2174   1.419       .  A
C2169      H2176   1.081       .  S
C2170      C2171   1.425   1_556  A
C2171      C2172   1.411       .  A
C2171      C2178   1.499       .  S
C2172      C2173   1.403   1_554  A
C2172      H2177   1.086       .  S
C2173      C2174   1.416       .  A
C2174      C2175   1.506       .  S
C2175      H2179   1.111       .  S
C2175      H2180   1.110       .  S
C2175      H2181   1.110       .  S
C2178      H2182   1.094       .  S
C2178      H2183   1.110       .  S
C2178      H2184   1.111       .  S
C2185      C2186   1.407       .  A
C2185      C2190   1.408       .  A
C2185      H2192   1.084       .  S
C2186      C2187   1.413       .  A
C2187      C2188   1.422       .  A
C2187      C2194   1.504       .  S
C2188      C2189   1.418       .  A
C2188      H2193   1.081       .  S
C2189      C2190   1.415       .  A
C2190      C2191   1.502       .  S
C2191      H2195   1.111       .  S
C2191      H2196   1.103       .  S
C2191      H2197   1.107       .  S
C2194      H2198   1.110       .  S
C2194      H2199   1.111       .  S
C2194      H2200   1.111       .  S
C2201      C2202   1.417       .  A
C2201      C2206   1.404       .  A
C2201      H2208   1.082       .  S
C2202      C2203   1.418       .  A
C2203      C2204   1.437       .  A
C2203      C2210   1.502       .  S
C2204      C2205   1.425       .  A
C2204      H2209   1.082       .  S
C2205      C2206   1.417       .  A
C2206      C2207   1.505       .  S
C2207      H2211   1.110       .  S
C2207      H2212   1.087       .  S
C2207      H2213   1.098       .  S
C2210      H2214   1.110       .  S
C2210      H2215   1.110       .  S
C2210      H2216   1.111       .  S
C2217      C2218   1.395       .  A
C2217      C2222   1.385       .  A
C2217      H2224   1.085       .  S
C2218      C2219   1.403       .  A
C2219      C2220   1.387       .  A
C2219      C2226   1.507       .  S
C2220      C2221   1.396       .  A
C2220      H2225   1.085       .  S
C2221      C2222   1.406       .  A
C2222      C2223   1.509       .  S
C2223      H2227   1.111       .  S
C2223      H2228   1.103       .  S
C2223      H2229   1.106       .  S
C2226      H2230   1.110       .  S
C2226      H2231   1.111       .  S
C2226      H2232   1.111       .  S
C2233      C2234   1.400       .  A
C2233      C2238   1.393       .  A
C2233      H2240   1.079       .  S
C2234      C2235   1.418       .  A
C2235      C2236   1.392       .  A
C2235      C2242   1.508       .  S
C2236      C2237   1.396       .  A
C2236      H2241   1.085       .  S
C2237      C2238   1.398       .  A
C2238      C2239   1.504       .  S
C2239      H2243   1.107       .  S
C2239      H2244   1.110       .  S
C2239      H2245   1.110       .  S
C2242      H2246   1.108       .  S
C2242      H2247   1.108       .  S
C2242      H2248   1.111       .  S
C2249      C2250   1.389       .  A
C2249      C2254   1.386   1_554  A
C2249      H2256   1.067   1_554  S
C2250      C2251   1.406       .  A
C2251      C2252   1.404       .  A
C2251      C2258   1.496       .  S
C2252      C2253   1.404       .  A
C2252      H2257   1.084       .  S
C2253      C2254   1.422   1_554  A
C2254      C2255   1.516       .  S
C2255      H2259   1.109       .  S
C2255      H2260   1.110       .  S
C2255      H2261   1.108       .  S
C2258      H2262   1.106       .  S
C2258      H2263   1.109       .  S
C2258      H2264   1.111       .  S
C2265      C2266   1.403       .  A
C2265      C2270   1.400       .  A
C2265      H2272   1.084       .  S
C2266      C2267   1.398       .  A
C2267      C2268   1.392       .  A
C2267      C2274   1.504       .  S
C2268      C2269   1.400       .  A
C2268      H2273   1.079       .  S
C2269      C2270   1.415       .  A
C2270      C2271   1.509       .  S
C2271      H2275   1.111       .  S
C2271      H2276   1.111       .  S
C2271      H2277   1.110       .  S
C2274      H2278   1.109       .  S
C2274      H2279   1.105       .  S
C2274      H2280   1.102       .  S
C2281      C2282   1.412       .  A
C2281      C2286   1.414       .  A
C2281      H2288   1.083       .  S
C2282      C2283   1.418   1_556  A
C2283      C2284   1.431       .  A
C2283      C2290   1.503       .  S
C2284      C2285   1.421   1_554  A
C2284      H2289   1.082       .  S
C2285      C2286   1.420       .  A
C2286      C2287   1.506       .  S
C2287      H2291   1.110       .  S
C2287      H2292   1.107       .  S
C2287      H2293   1.108       .  S
C2290      H2294   1.110       .  S
C2290      H2295   1.110       .  S
C2290      H2296   1.111       .  S
C2297      C2298   1.399       .  A
C2297      C2302   1.428       .  A
C2297      H2304   1.084       .  S
C2298      C2299   1.428   1_556  A
C2299      C2300   1.402       .  A
C2299      C2306   1.511       .  S
C2300      C2301   1.403   1_554  A
C2300      H2305   1.083       .  S
C2301      C2302   1.448       .  A
C2302      C2303   1.496       .  S
C2303      H2307   1.107       .  S
C2303      H2308   1.090       .  S
C2303      H2309   1.109       .  S
C2306      H2310   1.111       .  S
C2306      H2311   1.109       .  S
C2306      H2312   1.110       .  S
C2313      C2314   1.413       .  A
C2313      C2318   1.425       .  A
C2313      H2320   1.084       .  S
C2314      C2315   1.426   1_455  A
C2315      C2316   1.422       .  A
C2315      C2322   1.501       .  S
C2316      C2317   1.409   1_655  A
C2316      H2321   1.084       .  S
C2317      C2318   1.416       .  A
C2318      C2319   1.504       .  S
C2319      H2323   1.111       .  S
C2319      H2324   1.103       .  S
C2319      H2325   1.110       .  S
C2322      H2326   1.110       .  S
C2322      H2327   1.102       .  S
C2322      H2328   1.110       .  S
C2329      C2330   1.425       .  A
C2329      C2334   1.433       .  A
C2329      H2336   1.081       .  S
C2330      C2331   1.393   1_655  A
C2331      C2332   1.390       .  A
C2331      C2338   1.511       .  S
C2332      C2333   1.426   1_455  A
C2332      H2337   1.081       .  S
C2333      C2334   1.414       .  A
C2334      C2335   1.500       .  S
C2335      H2339   1.111       .  S
C2335      H2340   1.110       .  S
C2335      H2341   1.110       .  S
C2338      H2342   1.102       .  S
C2338      H2343   1.098       .  S
C2338      H2344   1.110       .  S
C2345      C2346   1.408   1_556  A
C2345      C2350   1.413       .  A
C2345      H2352   1.080       .  S
C2346      C2347   1.426       .  A
C2347      C2348   1.423       .  A
C2347      C2354   1.503       .  S
C2348      C2349   1.408       .  A
C2348      H2353   1.084       .  S
C2349      C2350   1.416   1_554  A
C2350      C2351   1.508       .  S
C2351      H2355   1.111       .  S
C2351      H2356   1.110       .  S
C2351      H2357   1.109       .  S
C2354      H2358   1.104       .  S
C2354      H2359   1.110       .  S
C2354      H2360   1.110       .  S
C2361      C2362   1.408   1_655  A
C2361      C2366   1.409       .  A
C2361      H2368   1.080       .  S
C2362      C2363   1.426       .  A
C2363      C2364   1.422       .  A
C2363      C2370   1.506       .  S
C2364      C2365   1.407       .  A
C2364      H2369   1.084       .  S
C2365      C2366   1.415   1_455  A
C2366      C2367   1.508       .  S
C2367      H2371   1.111       .  S
C2367      H2372   1.110       .  S
C2367      H2373   1.110       .  S
C2370      H2374   1.104       .  S
C2370      H2375   1.105       .  S
C2370      H2376   1.111       .  S
C2377      C2378   1.406       .  A
C2377      C2382   1.407       .  A
C2377      H2384   1.087   1_556  S
C2378      C2379   1.417       .  A
C2379      C2380   1.439       .  A
C2379      C2386   1.501       .  S
C2380      C2381   1.423       .  A
C2380      H2385   1.081       .  S
C2381      C2382   1.430       .  A
C2382      C2383   1.502   1_556  S
C2383      H2387   1.107       .  S
C2383      H2388   1.110       .  S
C2383      H2389   1.093       .  S
C2386      H2390   1.110       .  S
C2386      H2391   1.110       .  S
C2386      H2392   1.108       .  S
C2393      C2394   1.405   1_455  A
C2393      C2398   1.411       .  A
C2393      H2400   1.082       .  S
C2394      C2395   1.427       .  A
C2395      C2396   1.441       .  A
C2395      C2402   1.506       .  S
C2396      C2397   1.416       .  A
C2396      H2401   1.082       .  S
C2397      C2398   1.426   1_655  A
C2398      C2399   1.512       .  S
C2399      H2403   1.111       .  S
C2399      H2404   1.107       .  S
C2399      H2405   1.110       .  S
C2402      H2406   1.106       .  S
C2402      H2407   1.101       .  S
C2402      H2408   1.107       .  S
C2409      C2410   1.413       .  A
C2409      C2414   1.406       .  A
C2409      H2416   1.086       .  S
C2410      C2411   1.424       .  A
C2411      C2412   1.450       .  A
C2411      C2418   1.499       .  S
C2412      C2413   1.432       .  A
C2412      H2417   1.080       .  S
C2413      C2414   1.424       .  A
C2414      C2415   1.503       .  S
C2415      H2419   1.108       .  S
C2415      H2420   1.097       .  S
C2415      H2421   1.110       .  S
C2418      H2422   1.110       .  S
C2418      H2423   1.109       .  S
C2418      H2424   1.111       .  S
C2425      C2426   1.410       .  A
C2425      C2430   1.412       .  A
C2425      H2432   1.079       .  S
C2426      C2427   1.423       .  A
C2427      C2428   1.419       .  A
C2427      C2434   1.502       .  S
C2428      C2429   1.408       .  A
C2428      H2433   1.084       .  S
C2429      C2430   1.414       .  A
C2430      C2431   1.507       .  S
C2431      H2435   1.111       .  S
C2431      H2436   1.110       .  S
C2431      H2437   1.110       .  S
C2434      H2438   1.100       .  S
C2434      H2439   1.111       .  S
C2434      H2440   1.110       .  S
C2441      C2442   1.422       .  A
C2441      C2446   1.402       .  A
C2441      H2448   1.081       .  S
C2442      C2443   1.413   1_655  A
C2443      C2444   1.429       .  A
C2443      C2450   1.501       .  S
C2444      C2445   1.425   1_455  A
C2444      H2449   1.081       .  S
C2445      C2446   1.409       .  A
C2446      C2447   1.512       .  S
C2447      H2451   1.110       .  S
C2447      H2452   1.102       .  S
C2447      H2453   1.102       .  S
C2450      H2454   1.111       .  S
C2450      H2455   1.110       .  S
C2450      H2456   1.111       .  S
C2457      C2458   1.413       .  A
C2457      C2462   1.421       .  A
C2457      H2464   1.084       .  S
C2458      C2459   1.419   1_455  A
C2459      C2460   1.429       .  A
C2459      C2466   1.503       .  S
C2460      C2461   1.416       .  A
C2460      H2465   1.079       .  S
C2461      C2462   1.419   1_655  A
C2462      C2463   1.508       .  S
C2463      H2467   1.110       .  S
C2463      H2468   1.107       .  S
C2463      H2469   1.104       .  S
C2466      H2470   1.111       .  S
C2466      H2471   1.110       .  S
C2466      H2472   1.111       .  S
C2473      C2474   1.404       .  A
C2473      C2478   1.400       .  A
C2473      H2480   1.082       .  S
C2474      C2475   1.433   1_655  A
C2475      C2476   1.388       .  A
C2475      C2482   1.513       .  S
C2476      C2477   1.382   1_455  A
C2476      H2481   1.083       .  S
C2477      C2478   1.398       .  A
C2478      C2479   1.498       .  S
C2479      H2483   1.107       .  S
C2479      H2484   1.101       .  S
C2479      H2485   1.107       .  S
C2482      H2486   1.098       .  S
C2482      H2487   1.110       .  S
C2482      H2488   1.110       .  S
C2489      C2490   1.404   1_655  A
C2489      C2494   1.401       .  A
C2489      H2496   1.085       .  S
C2490      C2491   1.408       .  A
C2491      C2492   1.388   1_455  A
C2491      C2498   1.508       .  S
C2492      C2493   1.399       .  A
C2492      H2497   1.086   1_655  S
C2493      C2494   1.402       .  A
C2494      C2495   1.504       .  S
C2495      H2499   1.111       .  S
C2495      H2500   1.111       .  S
C2495      H2501   1.110       .  S
C2498      H2502   1.109       .  S
C2498      H2503   1.109       .  S
C2498      H2504   1.111       .  S
C2505      C2506   1.404       .  A
C2505      C2510   1.409       .  A
C2505      H2512   1.087       .  S
C2506      C2507   1.426       .  A
C2507      C2508   1.445       .  A
C2507      C2514   1.500       .  S
C2508      C2509   1.424       .  A
C2508      H2513   1.082       .  S
C2509      C2510   1.429       .  A
C2510      C2511   1.499       .  S
C2511      H2515   1.111       .  S
C2511      H2516   1.088       .  S
C2511      H2517   1.107       .  S
C2514      H2518   1.110       .  S
C2514      H2519   1.110       .  S
C2514      H2520   1.110       .  S
C2521      C2522   1.411       .  A
C2521      C2526   1.407       .  A
C2521      H2528   1.086       .  S
C2522      C2523   1.408       .  A
C2523      C2524   1.416       .  A
C2523      C2530   1.504       .  S
C2524      C2525   1.418       .  A
C2524      H2529   1.080       .  S
C2525      C2526   1.417       .  A
C2526      C2527   1.506       .  S
C2527      H2531   1.110       .  S
C2527      H2532   1.110       .  S
C2527      H2533   1.097       .  S
C2530      H2534   1.111       .  S
C2530      H2535   1.110       .  S
C2530      H2536   1.111       .  S
C2537      C2538   1.399       .  A
C2537      C2542   1.403       .  A
C2537      H2544   1.085       .  S
C2538      C2539   1.414   1_556  A
C2539      C2540   1.430       .  A
C2539      C2546   1.502       .  S
C2540      C2541   1.422   1_554  A
C2540      H2545   1.084       .  S
C2541      C2542   1.426       .  A
C2542      C2543   1.502       .  S
C2543      H2547   1.111       .  S
C2543      H2548   1.090       .  S
C2543      H2549   1.098       .  S
C2546      H2550   1.110       .  S
C2546      H2551   1.110       .  S
C2546      H2552   1.110       .  S
C2553      C2554   1.419       .  A
C2553      C2558   1.429       .  A
C2553      H2560   1.083       .  S
C2554      C2555   1.428   1_556  A
C2555      C2556   1.415       .  A
C2555      C2562   1.508       .  S
C2556      C2557   1.406   1_554  A
C2556      H2561   1.083       .  S
C2557      C2558   1.418       .  A
C2558      C2559   1.502       .  S
C2559      H2563   1.111       .  S
C2559      H2564   1.110       .  S
C2559      H2565   1.110       .  S
C2562      H2566   1.099       .  S
C2562      H2567   1.102       .  S
C2562      H2568   1.110       .  S
C2569      C2570   1.405       .  A
C2569      C2574   1.393       .  A
C2569      H2576   1.085       .  S
C2570      C2571   1.414       .  A
C2571      C2572   1.402       .  A
C2571      C2578   1.506       .  S
C2572      C2573   1.405       .  A
C2572      H2577   1.084       .  S
C2573      C2574   1.411       .  A
C2574      C2575   1.507       .  S
C2575      H2579   1.110       .  S
C2575      H2580   1.106       .  S
C2575      H2581   1.111       .  S
C2578      H2582   1.111       .  S
C2578      H2583   1.109       .  S
C2578      H2584   1.111       .  S
C2585      C2586   1.398       .  A
C2585      C2590   1.401       .  A
C2585      H2592   1.078       .  S
C2586      C2587   1.427   1_556  A
C2587      C2588   1.384       .  A
C2587      C2594   1.518       .  S
C2588      C2589   1.385   1_554  A
C2588      H2593   1.081       .  S
C2589      C2590   1.405       .  A
C2590      C2591   1.500       .  S
C2591      H2595   1.102       .  S
C2591      H2596   1.110       .  S
C2591      H2597   1.106       .  S
C2594      H2598   1.110       .  S
C2594      H2599   1.108       .  S
C2594      H2600   1.111       .  S
C2601      C2602   1.404   1_554  A
C2601      C2606   1.399       .  A
C2601      H2608   1.084       .  S
C2602      C2603   1.405       .  A
C2603      C2604   1.399       .  A
C2603      C2610   1.498       .  S
C2604      C2605   1.399   1_556  A
C2604      H2609   1.081       .  S
C2605      C2606   1.403       .  A
C2606      C2607   1.502       .  S
C2607      H2611   1.110       .  S
C2607      H2612   1.110       .  S
C2607      H2613   1.110       .  S
C2610      H2614   1.107       .  S
C2610      H2615   1.107       .  S
C2610      H2616   1.098       .  S
C2617      C2618   1.423       .  A
C2617      C2622   1.444       .  A
C2617      H2624   1.082       .  S
C2618      C2619   1.430       .  A
C2619      C2620   1.410       .  A
C2619      C2626   1.502       .  S
C2620      C2621   1.404       .  A
C2620      H2625   1.086       .  S
C2621      C2622   1.427       .  A
C2622      C2623   1.502       .  S
C2623      H2627   1.111       .  S
C2623      H2628   1.110       .  S
C2623      H2629   1.110       .  S
C2626      H2630   1.086       .  S
C2626      H2631   1.110       .  S
C2626      H2632   1.106       .  S
C2633      C2634   1.411   1_655  A
C2633      C2638   1.416       .  A
C2633      H2640   1.084       .  S
C2634      C2635   1.413       .  A
C2635      C2636   1.420       .  A
C2635      C2642   1.505       .  S
C2636      C2637   1.416       .  A
C2636      H2641   1.075       .  S
C2637      C2638   1.415   1_455  A
C2638      C2639   1.505       .  S
C2639      H2643   1.110       .  S
C2639      H2644   1.109       .  S
C2639      H2645   1.109       .  S
C2642      H2646   1.111       .  S
C2642      H2647   1.110       .  S
C2642      H2648   1.111       .  S
C2649      C2650   1.404       .  A
C2649      C2654   1.407       .  A
C2649      H2656   1.081       .  S
C2650      C2651   1.429   1_455  A
C2651      C2652   1.426       .  A
C2651      C2658   1.498       .  S
C2652      C2653   1.406   1_655  A
C2652      H2657   1.084       .  S
C2653      C2654   1.421       .  A
C2654      C2655   1.511       .  S
C2655      H2659   1.111       .  S
C2655      H2660   1.110       .  S
C2655      H2661   1.107       .  S
C2658      H2662   1.107       .  S
C2658      H2663   1.109       .  S
C2658      H2664   1.111       .  S
C2665      C2666   1.414       .  A
C2665      C2670   1.423       .  A
C2665      H2672   1.084       .  S
C2666      C2667   1.410       .  A
C2667      C2668   1.406       .  A
C2667      C2674   1.510       .  S
C2668      C2669   1.413       .  A
C2668      H2673   1.075       .  S
C2669      C2670   1.417       .  A
C2670      C2671   1.506       .  S
C2671      H2675   1.110       .  S
C2671      H2676   1.105       .  S
C2671      H2677   1.103       .  S
C2674      H2678   1.110       .  S
C2674      H2679   1.110       .  S
C2674      H2680   1.108       .  S
C2681      C2682   1.405       .  A
C2681      C2686   1.400       .  A
C2681      H2688   1.081       .  S
C2682      C2683   1.421       .  A
C2683      C2684   1.400       .  A
C2683      C2690   1.507       .  S
C2684      C2685   1.395       .  A
C2684      H2689   1.068       .  S
C2685      C2686   1.395       .  A
C2686      C2687   1.487       .  S
C2687      H2691   1.109       .  S
C2687      H2692   1.105       .  S
C2687      H2693   1.110       .  S
C2690      H2694   1.110       .  S
C2690      H2695   1.105       .  S
C2690      H2696   1.104       .  S
C2697      C2698   1.407       .  A
C2697      C2702   1.388       .  A
C2697      H2704   1.085       .  S
C2698      C2699   1.411       .  A
C2699      C2700   1.391       .  A
C2699      C2706   1.510       .  S
C2700      C2701   1.403       .  A
C2700      H2705   1.081       .  S
C2701      C2702   1.404       .  A
C2702      C2703   1.502       .  S
C2703      H2707   1.106       .  S
C2703      H2708   1.110   1_455  S
C2703      H2709   1.108       .  S
C2706      H2710   1.110       .  S
C2706      H2711   1.106       .  S
C2706      H2712   1.108       .  S
C2713      C2714   1.392       .  A
C2713      C2718   1.396       .  A
C2713      H2720   1.084       .  S
C2714      C2715   1.418       .  A
C2715      C2716   1.393       .  A
C2715      C2722   1.507       .  S
C2716      C2717   1.391       .  A
C2716      H2721   1.078       .  S
C2717      C2718   1.411       .  A
C2718      C2719   1.497       .  S
C2719      H2723   1.110       .  S
C2719      H2724   1.109       .  S
C2719      H2725   1.107       .  S
C2722      H2726   1.110       .  S
C2722      H2727   1.106       .  S
C2722      H2728   1.111       .  S
C2729      C2730   1.412   1_556  A
C2729      C2734   1.413       .  A
C2729      H2736   1.085       .  S
C2730      C2731   1.415       .  A
C2731      C2732   1.430       .  A
C2731      C2738   1.502       .  S
C2732      C2733   1.421       .  A
C2732      H2737   1.081       .  S
C2733      C2734   1.418   1_554  A
C2734      C2735   1.503       .  S
C2735      H2739   1.111       .  S
C2735      H2740   1.102       .  S
C2735      H2741   1.108       .  S
C2738      H2742   1.110       .  S
C2738      H2743   1.111       .  S
C2738      H2744   1.111       .  S
C2745      C2746   1.422   1_554  A
C2745      C2750   1.406       .  A
C2745      H2752   1.084       .  S
C2746      C2747   1.411       .  A
C2747      C2748   1.426       .  A
C2747      C2754   1.499       .  S
C2748      C2749   1.422       .  A
C2748      H2753   1.082       .  S
C2749      C2750   1.406   1_556  A
C2750      C2751   1.515       .  S
C2751      H2755   1.110       .  S
C2751      H2756   1.098       .  S
C2751      H2757   1.104       .  S
C2754      H2758   1.110       .  S
C2754      H2759   1.108       .  S
C2754      H2760   1.111       .  S
C2761      C2762   1.418       .  A
C2761      C2766   1.446       .  A
C2761      H2768   1.083       .  S
C2762      C2763   1.423       .  A
C2763      C2764   1.414       .  A
C2763      C2770   1.513       .  S
C2764      C2765   1.409       .  A
C2764      H2769   1.074       .  S
C2765      C2766   1.435       .  A
C2766      C2767   1.502       .  S
C2767      H2771   1.110       .  S
C2767      H2772   1.102       .  S
C2767      H2773   1.101       .  S
C2770      H2774   1.110       .  S
C2770      H2775   1.107       .  S
C2770      H2776   1.110       .  S
C2777      C2778   1.409       .  A
C2777      C2782   1.407       .  A
C2777      H2784   1.083       .  S
C2778      C2779   1.418       .  A
C2779      C2780   1.434       .  A
C2779      C2786   1.499       .  S
C2780      C2781   1.421       .  A
C2780      H2785   1.083       .  S
C2781      C2782   1.421       .  A
C2782      C2783   1.504       .  S
C2783      H2787   1.107       .  S
C2783      H2788   1.108       .  S
C2783      H2789   1.111       .  S
C2786      H2790   1.108       .  S
C2786      H2791   1.110       .  S
C2786      H2792   1.111       .  S
C2793      C2794   1.402       .  A
C2793      C2798   1.400       .  A
C2793      H2800   1.085       .  S
C2794      C2795   1.415       .  A
C2795      C2796   1.390       .  A
C2795      C2802   1.512       .  S
C2796      C2797   1.396       .  A
C2796      H2801   1.084       .  S
C2797      C2798   1.413       .  A
C2798      C2799   1.496       .  S
C2799      H2803   1.110       .  S
C2799      H2804   1.111       .  S
C2799      H2805   1.111       .  S
C2802      H2806   1.110       .  S
C2802      H2807   1.109       .  S
C2802      H2808   1.110       .  S
C2809      C2810   1.401       .  A
C2809      C2814   1.398       .  A
C2809      H2816   1.076       .  S
C2810      C2811   1.403       .  A
C2811      C2812   1.377       .  A
C2811      C2818   1.516       .  S
C2812      C2813   1.404       .  A
C2812      H2817   1.074       .  S
C2813      C2814   1.397       .  A
C2814      C2815   1.499       .  S
C2815      H2819   1.109       .  S
C2815      H2820   1.110       .  S
C2815      H2821   1.110       .  S
C2818      H2822   1.106       .  S
C2818      H2823   1.110       .  S
C2818      H2824   1.109       .  S
C2825      C2826   1.403       .  A
C2825      C2830   1.395       .  A
C2825      H2832   1.074       .  S
C2826      C2827   1.394       .  A
C2827      C2828   1.396       .  A
C2827      C2834   1.490       .  S
C2828      C2829   1.411       .  A
C2828      H2833   1.084       .  S
C2829      C2830   1.416       .  A
C2830      C2831   1.512       .  S
C2831      H2835   1.110       .  S
C2831      H2836   1.110       .  S
C2831      H2837   1.106       .  S
C2834      H2838   1.106       .  S
C2834      H2839   1.109       .  S
C2834      H2840   1.106       .  S
C2841      C2842   1.392       .  A
C2841      C2846   1.386       .  A
C2841      H2848   1.077       .  S
C2842      C2843   1.398   1_556  A
C2843      C2844   1.390       .  A
C2843      C2850   1.494       .  S
C2844      C2845   1.400       .  A
C2844      H2849   1.085       .  S
C2845      C2846   1.413   1_554  A
C2846      C2847   1.511       .  S
C2847      H2851   1.103       .  S
C2847      H2852   1.110   1_556  S
C2847      H2853   1.109       .  S
C2850      H2854   1.110       .  S
C2850      H2855   1.111   1_554  S
C2850      H2856   1.109       .  S
C2857      C2858   1.415       .  A
C2857      C2862   1.436       .  A
C2857      H2864   1.083       .  S
C2858      C2859   1.420       .  A
C2859      C2860   1.405       .  A
C2859      C2866   1.514       .  S
C2860      C2861   1.407       .  A
C2860      H2865   1.067       .  S
C2861      C2862   1.430       .  A
C2862      C2863   1.503       .  S
C2863      H2867   1.110       .  S
C2863      H2868   1.108       .  S
C2863      H2869   1.110       .  S
C2866      H2870   1.111       .  S
C2866      H2871   1.107       .  S
C2866      H2872   1.109       .  S
C2873      C2874   1.416       .  A
C2873      C2878   1.428       .  A
C2873      H2880   1.083       .  S
C2874      C2875   1.424       .  A
C2875      C2876   1.415       .  A
C2875      C2882   1.502       .  S
C2876      C2877   1.411       .  A
C2876      H2881   1.086       .  S
C2877      C2878   1.419       .  A
C2878      C2879   1.504       .  S
C2879      H2883   1.111       .  S
C2879      H2884   1.111       .  S
C2879      H2885   1.110       .  S
C2882      H2886   1.111       .  S
C2882      H2887   1.095       .  S
C2882      H2888   1.110       .  S
C2889      C2890   1.398       .  A
C2889      C2894   1.407       .  A
C2889      H2896   1.086       .  S
C2890      C2891   1.419       .  A
C2891      C2892   1.425       .  A
C2891      C2898   1.505       .  S
C2892      C2893   1.412       .  A
C2892      H2897   1.083       .  S
C2893      C2894   1.432       .  A
C2894      C2895   1.500       .  S
C2895      H2899   1.110       .  S
C2895      H2900   1.108       .  S
C2895      H2901   1.096       .  S
C2898      H2902   1.110       .  S
C2898      H2903   1.110       .  S
C2898      H2904   1.111       .  S
C2905      C2906   1.404       .  A
C2905      C2910   1.432       .  A
C2905      H2912   1.084       .  S
C2906      C2907   1.430       .  A
C2907      C2908   1.426       .  A
C2907      C2914   1.508       .  S
C2908      C2909   1.411       .  A
C2908      H2913   1.083       .  S
C2909      C2910   1.446       .  A
C2910      C2911   1.497       .  S
C2911      H2915   1.107       .  S
C2911      H2916   1.088       .  S
C2911      H2917   1.110       .  S
C2914      H2918   1.108       .  S
C2914      H2919   1.110       .  S
C2914      H2920   1.111       .  S
C2921      C2922   1.415       .  A
C2921      C2926   1.434       .  A
C2921      H2928   1.083       .  S
C2922      C2923   1.419       .  A
C2923      C2924   1.419       .  A
C2923      C2930   1.507       .  S
C2924      C2925   1.410       .  A
C2924      H2929   1.073       .  S
C2925      C2926   1.422       .  A
C2926      C2927   1.499       .  S
C2927      H2931   1.111       .  S
C2927      H2932   1.110       .  S
C2927      H2933   1.106       .  S
C2930      H2934   1.110       .  S
C2930      H2935   1.109       .  S
C2930      H2936   1.111       .  S
C2937      C2938   1.408       .  A
C2937      C2942   1.416       .  A
C2937      H2944   1.079       .  S
C2938      C2939   1.429       .  A
C2939      C2940   1.431       .  A
C2939      C2946   1.499       .  S
C2940      C2941   1.410       .  A
C2940      H2945   1.083       .  S
C2941      C2942   1.423       .  A
C2942      C2943   1.509       .  S
C2943      H2947   1.111       .  S
C2943      H2948   1.108       .  S
C2943      H2949   1.110       .  S
C2946      H2950   1.106       .  S
C2946      H2951   1.110       .  S
C2946      H2952   1.111       .  S
C2953      C2954   1.409       .  A
C2953      C2958   1.412       .  A
C2953      H2960   1.085       .  S
C2954      C2955   1.420       .  A
C2955      C2956   1.434       .  A
C2955      C2962   1.502       .  S
C2956      C2957   1.421       .  A
C2956      H2961   1.083       .  S
C2957      C2958   1.423       .  A
C2958      C2959   1.503       .  S
C2959      H2963   1.108       .  S
C2959      H2964   1.111       .  S
C2959      H2965   1.099       .  S
C2962      H2966   1.110       .  S
C2962      H2967   1.111       .  S
C2962      H2968   1.111       .  S
C2969      C2970   1.405       .  A
C2969      C2974   1.421       .  A
C2969      H2976   1.084       .  S
C2970      C2971   1.420       .  A
C2971      C2972   1.408       .  A
C2971      C2978   1.509       .  S
C2972      C2973   1.402       .  A
C2972      H2977   1.083       .  S
C2973      C2974   1.424       .  A
C2974      C2975   1.499       .  S
C2975      H2979   1.101       .  S
C2975      H2980   1.103       .  S
C2975      H2981   1.110       .  S
C2978      H2982   1.110       .  S
C2978      H2983   1.108       .  S
C2978      H2984   1.111       .  S
C2985      C2986   1.401       .  A
C2985      C2990   1.398       .  A
C2985      H2992   1.085       .  S
C2986      C2987   1.412       .  A
C2987      C2988   1.386       .  A
C2987      C2994   1.503       .  S
C2988      C2989   1.401       .  A
C2988      H2993   1.084       .  S
C2989      C2990   1.414       .  A
C2990      C2991   1.499       .  S
C2991      H2995   1.109       .  S
C2991      H2996   1.108       .  S
C2991      H2997   1.105       .  S
C2994      H2998   1.099       .  S
C2994      H2999   1.111       .  S
C2994      H3000   1.108       .  S
C3001      C3002   1.404       .  A
C3001      C3006   1.415       .  A
C3001      H3008   1.084       .  S
C3002      C3003   1.420       .  A
C3003      C3004   1.434       .  A
C3003      C3010   1.502       .  S
C3004      C3005   1.420       .  A
C3004      H3009   1.083       .  S
C3005      C3006   1.429       .  A
C3006      C3007   1.502       .  S
C3007      H3011   1.111       .  S
C3007      H3012   1.104       .  S
C3007      H3013   1.103       .  S
C3010      H3014   1.110       .  S
C3010      H3015   1.111       .  S
C3010      H3016   1.111       .  S
C3017      C3018   1.408       .  A
C3017      C3022   1.430       .  A
C3017      H3024   1.084       .  S
C3018      C3019   1.429       .  A
C3019      C3020   1.406       .  A
C3019      C3026   1.511       .  S
C3020      C3021   1.402       .  A
C3020      H3025   1.085       .  S
C3021      C3022   1.433       .  A
C3022      C3023   1.498       .  S
C3023      H3027   1.110       .  S
C3023      H3028   1.101       .  S
C3023      H3029   1.110       .  S
C3026      H3030   1.110       .  S
C3026      H3031   1.111       .  S
C3026      H3032   1.108       .  S
C3033      C3034   1.405       .  A
C3033      C3038   1.406       .  A
C3033      H3040   1.085       .  S
C3034      C3035   1.413       .  A
C3035      C3036   1.416       .  A
C3035      C3042   1.506       .  S
C3036      C3037   1.411       .  A
C3036      H3041   1.080       .  S
C3037      C3038   1.418       .  A
C3038      C3039   1.507       .  S
C3039      H3043   1.110       .  S
C3039      H3044   1.110       .  S
C3039      H3045   1.107       .  S
C3042      H3046   1.110       .  S
C3042      H3047   1.110       .  S
C3042      H3048   1.111       .  S
C3049      C3050   1.422       .  A
C3049      C3054   1.429       .  A
C3049      H3056   1.083       .  S
C3050      C3051   1.418       .  A
C3051      C3052   1.410       .  A
C3051      C3058   1.505       .  S
C3052      C3053   1.412       .  A
C3052      H3057   1.085       .  S
C3053      C3054   1.415       .  A
C3054      C3055   1.502       .  S
C3055      H3059   1.110       .  S
C3055      H3060   1.110       .  S
C3055      H3061   1.110       .  S
C3058      H3062   1.109       .  S
C3058      H3063   1.100       .  S
C3058      H3064   1.111       .  S
C3065      C3066   1.405       .  A
C3065      C3070   1.391       .  A
C3065      H3072   1.082       .  S
C3066      C3067   1.410       .  A
C3067      C3068   1.411       .  A
C3067      C3074   1.498       .  S
C3068      C3069   1.405       .  A
C3068      H3073   1.080       .  S
C3069      C3070   1.407       .  A
C3070      C3071   1.504       .  S
C3071      H3075   1.107       .  S
C3071      H3076   1.105       .  S
C3071      H3077   1.097       .  S
C3074      H3078   1.110       .  S
C3074      H3079   1.105       .  S
C3074      H3080   1.089       .  S
C3081      C3082   1.410       .  A
C3081      C3086   1.412       .  A
C3081      H3088   1.086       .  S
C3082      C3083   1.416       .  A
C3083      C3084   1.434       .  A
C3083      C3090   1.504       .  S
C3084      C3085   1.421       .  A
C3084      H3089   1.083       .  S
C3085      C3086   1.430       .  A
C3086      C3087   1.504       .  S
C3087      H3091   1.110       .  S
C3087      H3092   1.098       .  S
C3087      H3093   1.109       .  S
C3090      H3094   1.110       .  S
C3090      H3095   1.110       .  S
C3090      H3096   1.111       .  S
C3097      C3098   1.423       .  A
C3097      C3102   1.435       .  A
C3097      H3104   1.083       .  S
C3098      C3099   1.417       .  A
C3099      C3100   1.404       .  A
C3099      C3106   1.512       .  S
C3100      C3101   1.415       .  A
C3100      H3105   1.084       .  S
C3101      C3102   1.417       .  A
C3102      C3103   1.501       .  S
C3103      H3107   1.111       .  S
C3103      H3108   1.110       .  S
C3103      H3109   1.110       .  S
C3106      H3110   1.100       .  S
C3106      H3111   1.105       .  S
C3106      H3112   1.110       .  S
C3113      C3114   1.410       .  A
C3113      C3118   1.403       .  A
C3113      H3120   1.080       .  S
C3114      C3115   1.417       .  A
C3115      C3116   1.437       .  A
C3115      C3122   1.500       .  S
C3116      C3117   1.427       .  A
C3116      H3121   1.083       .  S
C3117      C3118   1.422       .  A
C3118      C3119   1.505       .  S
C3119      H3123   1.108       .  S
C3119      H3124   1.106       .  S
C3119      H3125   1.099       .  S
C3122      H3126   1.110       .  S
C3122      H3127   1.110       .  S
C3122      H3128   1.111       .  S
C3129      C3130   1.414       .  A
C3129      C3134   1.399       .  A
C3129      H3136   1.084       .  S
C3130      C3131   1.410       .  A
C3131      C3132   1.425       .  A
C3131      C3138   1.502       .  S
C3132      C3133   1.422       .  A
C3132      H3137   1.076       .  S
C3133      C3134   1.408       .  A
C3134      C3135   1.505       .  S
C3135      H3139   1.111       .  S
C3135      H3140   1.101       .  S
C3135      H3141   1.109       .  S
C3138      H3142   1.110       .  S
C3138      H3143   1.110       .  S
C3138      H3144   1.111       .  S
C3145      C3146   1.387       .  A
C3145      C3150   1.390       .  A
C3145      H3152   1.084       .  S
C3146      C3147   1.412       .  A
C3147      C3148   1.405       .  A
C3147      C3154   1.502       .  S
C3148      C3149   1.404       .  A
C3148      H3153   1.083       .  S
C3149      C3150   1.426       .  A
C3150      C3151   1.513       .  S
C3151      H3155   1.110       .  S
C3151      H3156   1.106       .  S
C3151      H3157   1.110       .  S
C3154      H3158   1.111       .  S
C3154      H3159   1.110       .  S
C3154      H3160   1.107       .  S
C3161      C3162   1.393       .  A
C3161      C3166   1.394       .  A
C3161      H3168   1.073       .  S
C3162      C3163   1.397       .  A
C3163      C3164   1.406       .  A
C3163      C3170   1.501       .  S
C3164      C3165   1.405       .  A
C3164      H3169   1.070       .  S
C3165      C3166   1.426       .  A
C3166      C3167   1.512       .  S
C3167      H3171   1.109       .  S
C3167      H3172   1.108       .  S
C3167      H3173   1.110       .  S
C3170      H3174   1.105       .  S
C3170      H3175   1.108       .  S
C3170      H3176   1.108       .  S
C3177      C3178   1.402       .  A
C3177      C3182   1.391       .  A
C3177      H3184   1.080       .  S
C3178      C3179   1.393       .  A
C3179      C3180   1.400       .  A
C3179      C3186   1.499       .  S
C3180      C3181   1.410       .  A
C3180      H3185   1.081       .  S
C3181      C3182   1.412       .  A
C3182      C3183   1.510       .  S
C3183      H3187   1.110       .  S
C3183      H3188   1.110       .  S
C3183      H3189   1.109       .  S
C3186      H3190   1.109       .  S
C3186      H3191   1.111       .  S
C3186      H3192   1.110       .  S
C3193      C3194   1.418       .  A
C3193      C3198   1.418       .  A
C3193      H3200   1.085       .  S
C3194      C3195   1.410       .  A
C3195      C3196   1.418       .  A
C3195      C3202   1.506       .  S
C3196      C3197   1.420       .  A
C3196      H3201   1.073       .  S
C3197      C3198   1.412       .  A
C3198      C3199   1.505       .  S
C3199      H3203   1.110       .  S
C3199      H3204   1.111       .  S
C3199      H3205   1.102       .  S
C3202      H3206   1.110       .  S
C3202      H3207   1.110       .  S
C3202      H3208   1.111       .  S
C3209      C3210   1.402       .  A
C3209      C3214   1.414       .  A
C3209      H3216   1.084       .  S
C3210      C3211   1.441       .  A
C3211      C3212   1.433       .  A
C3211      C3218   1.502       .  S
C3212      C3213   1.406       .  A
C3212      H3217   1.084       .  S
C3213      C3214   1.429       .  A
C3214      C3215   1.507       .  S
C3215      H3219   1.110       .  S
C3215      H3220   1.110       .  S
C3215      H3221   1.110       .  S
C3218      H3222   1.110       .  S
C3218      H3223   1.101       .  S
C3218      H3224   1.109       .  S
C3225      C3226   1.405       .  A
C3225      C3230   1.416       .  A
C3225      H3232   1.085       .  S
C3226      C3227   1.422       .  A
C3227      C3228   1.427       .  A
C3227      C3234   1.505       .  S
C3228      C3229   1.413       .  A
C3228      H3233   1.083       .  S
C3229      C3230   1.427       .  A
C3230      C3231   1.505       .  S
C3231      H3235   1.111       .  S
C3231      H3236   1.100       .  S
C3231      H3237   1.109       .  S
C3234      H3238   1.110       .  S
C3234      H3239   1.110       .  S
C3234      H3240   1.111       .  S
C3241      C3242   1.408       .  A
C3241      C3246   1.403       .  A
C3241      H3248   1.084       .  S
C3242      C3243   1.415       .  A
C3243      C3244   1.432       .  A
C3243      C3250   1.502       .  S
C3244      C3245   1.422       .  A
C3244      H3249   1.083       .  S
C3245      C3246   1.416       .  A
C3246      C3247   1.502       .  S
C3247      H3251   1.111       .  S
C3247      H3252   1.099       .  S
C3247      H3253   1.106       .  S
C3250      H3254   1.110       .  S
C3250      H3255   1.110       .  S
C3250      H3256   1.111       .  S
C3257      C3258   1.413       .  A
C3257      C3262   1.403       .  A
C3257      H3264   1.085       .  S
C3258      C3259   1.423       .  A
C3259      C3260   1.409       .  A
C3259      C3266   1.496       .  S
C3260      C3261   1.395       .  A
C3260      H3265   1.074       .  S
C3261      C3262   1.397       .  A
C3262      C3263   1.473       .  S
C3263      H3267   1.104       .  S
C3263      H3268   1.111       .  S
C3263      H3269   1.107       .  S
C3266      H3270   1.103       .  S
C3266      H3271   1.108       .  S
C3266      H3272   1.098       .  S
C3273      C3274   1.391       .  A
C3273      C3278   1.388       .  A
C3273      H3280   1.081       .  S
C3274      C3275   1.408       .  A
C3275      C3276   1.389       .  A
C3275      C3282   1.508       .  S
C3276      C3277   1.392       .  A
C3276      H3281   1.084       .  S
C3277      C3278   1.410       .  A
C3278      C3279   1.509       .  S
C3279      H3283   1.111       .  S
C3279      H3284   1.110       .  S
C3279      H3285   1.108       .  S
C3282      H3286   1.111       .  S
C3282      H3287   1.109       .  S
C3282      H3288   1.111       .  S
C3289      C3290   1.397       .  A
C3289      C3294   1.402       .  A
C3289      H3296   1.084       .  S
C3290      C3291   1.400       .  A
C3291      C3292   1.393       .  A
C3291      C3298   1.501       .  S
C3292      C3293   1.411       .  A
C3292      H3297   1.085       .  S
C3293      C3294   1.423       .  A
C3294      C3295   1.507       .  S
C3295      H3299   1.111       .  S
C3295      H3300   1.111       .  S
C3295      H3301   1.109       .  S
C3298      H3302   1.111       .  S
C3298      H3303   1.111       .  S
C3298      H3304   1.110       .  S
C3305      C3306   1.417       .  A
C3305      C3310   1.393       .  A
C3305      H3312   1.083       .  S
C3306      C3307   1.418       .  A
C3307      C3308   1.441       .  A
C3307      C3314   1.501       .  S
C3308      C3309   1.427       .  A
C3308      H3313   1.083       .  S
C3309      C3310   1.410       .  A
C3310      C3311   1.504       .  S
C3311      H3315   1.111       .  S
C3311      H3316   1.098       .  S
C3311      H3317   1.109       .  S
C3314      H3318   1.110       .  S
C3314      H3319   1.110       .  S
C3314      H3320   1.110       .  S
C3321      C3322   1.404       .  A
C3321      C3326   1.412       .  A
C3321      H3328   1.085       .  S
C3322      C3323   1.420       .  A
C3323      C3324   1.430       .  A
C3323      C3330   1.504       .  S
C3324      C3325   1.417       .  A
C3324      H3329   1.081       .  S
C3325      C3326   1.424       .  A
C3326      C3327   1.500       .  S
C3327      H3331   1.110       .  S
C3327      H3332   1.095       .  S
C3327      H3333   1.111       .  S
C3330      H3334   1.110       .  S
C3330      H3335   1.110       .  S
C3330      H3336   1.111       .  S
C3337      C3338   1.431       .  A
C3337      C3342   1.441       .  A
C3337      H3344   1.079       .  S
C3338      C3339   1.423       .  A
C3339      C3340   1.409       .  A
C3339      C3346   1.506       .  S
C3340      C3341   1.420       .  A
C3340      H3345   1.082       .  S
C3341      C3342   1.415       .  A
C3342      C3343   1.501       .  S
C3343      H3347   1.111       .  S
C3343      H3348   1.110       .  S
C3343      H3349   1.110       .  S
C3346      H3350   1.093       .  S
C3346      H3351   1.103       .  S
C3346      H3352   1.111       .  S
C3353      C3354   1.406       .  A
C3353      C3358   1.414       .  A
C3353      H3360   1.084       .  S
C3354      C3355   1.413       .  A
C3355      C3356   1.417       .  A
C3355      C3362   1.505       .  S
C3356      C3357   1.411       .  A
C3356      H3361   1.082       .  S
C3357      C3358   1.421       .  A
C3358      C3359   1.504       .  S
C3359      H3363   1.111       .  S
C3359      H3364   1.103       .  S
C3359      H3365   1.106       .  S
C3362      H3366   1.110       .  S
C3362      H3367   1.107       .  S
C3362      H3368   1.111       .  S
C3369      C3370   1.402       .  A
C3369      C3374   1.395       .  A
C3369      H3376   1.075       .  S
C3370      C3371   1.386       .  A
C3371      C3372   1.393       .  A
C3371      C3378   1.496       .  S
C3372      C3373   1.406       .  A
C3372      H3377   1.075       .  S
C3373      C3374   1.412       .  A
C3374      C3375   1.509       .  S
C3375      H3379   1.110       .  S
C3375      H3380   1.110       .  S
C3375      H3381   1.108       .  S
C3378      H3382   1.108       .  S
C3378      H3383   1.109       .  S
C3378      H3384   1.108       .  S
C3385      C3386   1.409       .  A
C3385      C3390   1.404       .  A
C3385      H3392   1.083       .  S
C3386      C3387   1.408       .  A
C3387      C3388   1.374       .  A
C3387      C3394   1.499       .  S
C3388      C3389   1.396       .  A
C3388      H3393   1.086       .  S
C3389      C3390   1.406       .  A
C3390      C3391   1.503       .  S
C3391      H3395   1.111       .  S
C3391      H3396   1.110       .  S
C3391      H3397   1.108       .  S
C3394      H3398   1.097       .  S
C3394      H3399   1.105       .  S
C3394      H3400   1.110       .  S
C3401      C3402   1.402       .  A
C3401      C3406   1.396       .  A
C3401      H3408   1.083       .  S
C3402      C3403   1.404       .  A
C3403      C3404   1.399       .  A
C3403      C3410   1.509       .  S
C3404      C3405   1.401       .  A
C3404      H3409   1.084       .  S
C3405      C3406   1.402       .  A
C3406      C3407   1.506       .  S
C3407      H3411   1.109       .  S
C3407      H3412   1.110       .  S
C3407      H3413   1.109       .  S
C3410      H3414   1.110       .  S
C3410      H3415   1.109       .  S
C3410      H3416   1.111       .  S
C3417      C3418   1.398       .  A
C3417      C3422   1.393       .  A
C3417      H3424   1.084       .  S
C3418      C3419   1.410       .  A
C3419      C3420   1.391       .  A
C3419      C3426   1.504       .  S
C3420      C3421   1.398       .  A
C3420      H3425   1.085       .  S
C3421      C3422   1.414       .  A
C3422      C3423   1.509       .  S
C3423      H3427   1.110       .  S
C3423      H3428   1.107       .  S
C3423      H3429   1.110       .  S
C3426      H3430   1.111       .  S
C3426      H3431   1.109       .  S
C3426      H3432   1.110       .  S
