geometry optimzed in LAMMPS
_audit_creation_date              2020-12-01 
_audit_creation_method            'lammps2cif' 
_symmetry_space_group_name_H-M    'P1' 
_symmetry_Int_Tables_number       1 
_symmetry_cell_setting            triclinic 
loop_ 
_symmetry_equiv_pos_as_xyz 
  x,y,z 
_cell_length_a                    28.01550539 
_cell_length_b                    28.01845729255681 
_cell_length_c                    28.53411557665538 
_cell_angle_alpha                 89.9987893598433 
_cell_angle_beta                  90.00025615732062 
_cell_angle_gamma                 89.98925655201325 
loop_ 
_atom_site_label 
_atom_site_type_symbol 
_atom_site_fract_x 
_atom_site_fract_y 
_atom_site_fract_z 
_atom_site_charge 
N1          N  0.44145248  0.58927218  0.44911750    -0.04500
N2          N  0.43208456  0.62179532  0.41691465    -0.56600
N3          N  0.40807700  0.55592214  0.55631092    -0.04200
N4          N  0.37540407  0.56509252  0.58843210    -0.58700
N5          N  0.44118203  0.58926960  0.55638224    -0.03800
N6          N  0.43177119  0.62178807  0.58855685    -0.56600
N7          N  0.40843262  0.55584897  0.44900346    -0.03400
N8          N  0.37593175  0.56490088  0.41670100    -0.59100
C9          C  0.39151202  0.60574986  0.39680509     0.97700
C10         C  0.39104224  0.60589014  0.60842793     0.97500
N11         N  0.44217975  0.40985439  0.55622266    -0.04700
N12         N  0.43347963  0.37744259  0.58871851    -0.57200
N13         N  0.40891539  0.44315877  0.44881471    -0.02800
N14         N  0.37649114  0.43384983  0.41650359    -0.58400
N15         N  0.44234251  0.41014964  0.44874062    -0.04700
N16         N  0.43336242  0.37766671  0.41637110    -0.57400
N17         N  0.40877727  0.44289616  0.55632511    -0.02400
N18         N  0.37660069  0.43363830  0.58889766    -0.58500
Mn19       Mn  0.40726015  0.49943876  0.50264253     1.18400
C20         C  0.39282455  0.39309840  0.60898212     0.99800
C21         C  0.39255539  0.39330296  0.39635522     1.00400
N22         N  0.55397862  0.58985529  0.55694138    -0.04700
N23         N  0.56273009  0.62215471  0.58954836    -0.61000
N24         N  0.58759132  0.55664319  0.44952111    -0.03500
N25         N  0.61964467  0.56532130  0.41669729    -0.61700
N26         N  0.55415335  0.58963527  0.44923160    -0.04200
N27         N  0.56275217  0.62149382  0.41618496    -0.61300
N28         N  0.58730778  0.55673737  0.55708745    -0.03100
N29         N  0.61943252  0.56579622  0.58975957    -0.62000
Mn30       Mn  0.49772199  0.59082790  0.50292569     1.10700
C31         C  0.60327867  0.60630603  0.60991465     1.01000
C32         C  0.60334303  0.60549095  0.39602687     1.01100
N33         N  0.55485133  0.41123564  0.44900948    -0.04200
N34         N  0.56364786  0.37945900  0.41598228    -0.59600
N35         N  0.58768144  0.44400378  0.55702381    -0.03500
N36         N  0.61980594  0.43497355  0.58972296    -0.56300
N37         N  0.55462336  0.41063333  0.55665605    -0.04900
N38         N  0.56353000  0.37822628  0.58909755    -0.59200
N39         N  0.58807006  0.44442933  0.44935346    -0.03800
N40         N  0.62021969  0.43593166  0.41655849    -0.56400
Mn41       Mn  0.49856136  0.40917951  0.50262920     1.20200
Mn42       Mn  0.58902450  0.50045504  0.50332225     1.10100
Cl43       Cl  0.49812053  0.49999495  0.50292750    -0.84300
C44         C  0.60411980  0.39567729  0.39586557     0.98000
C45         C  0.60391063  0.39420897  0.60961642     0.97800
C46         C  0.68515101  0.68622950  0.69960509     0.88100
C47         C  0.71835944  0.65699510  0.73133996    -0.52100
C48         C  0.74718090  0.68467383  0.75858166     0.11100
C49         C  0.74026116  0.73853391  0.75182281     0.22000
C50         C  0.65765582  0.71945401  0.73282056    -0.52800
C51         C  0.68679546  0.74683582  0.76006475     0.11200
C52         C  0.71840491  0.71921662  0.67144840    -0.52400
C53         C  0.74723733  0.74655326  0.69911109     0.11700
H54         H  0.71913051  0.61822985  0.73209457     0.16200
H55         H  0.76383388  0.76088754  0.77421273     0.02000
H56         H  0.61895620  0.72137049  0.73442955     0.16500
H57         H  0.71907200  0.72077749  0.63341131     0.16300
C58         C  0.68538441  0.31371736  0.69938371     0.88100
C59         C  0.65702146  0.28104405  0.73238926    -0.52100
C60         C  0.68536464  0.25405815  0.76079566     0.11100
C61         C  0.73909250  0.26225357  0.75383090     0.22000
C62         C  0.71778150  0.34344048  0.73141911    -0.52800
C63         C  0.74588250  0.31628794  0.75984601     0.11200
C64         C  0.71932534  0.28022389  0.67259077    -0.52400
C65         C  0.74743775  0.25330375  0.70140985     0.11700
H66         H  0.61829258  0.27906988  0.73290963     0.16200
H67         H  0.76205008  0.24027060  0.77717124     0.02000
H68         H  0.71860348  0.38221475  0.73145963     0.16500
H69         H  0.72088447  0.27795683  0.63461392     0.16300
C70         C  0.31080665  0.68521207  0.69995854     0.88100
C71         C  0.33945822  0.71635340  0.73413740    -0.52100
C72         C  0.31122854  0.74321630  0.76275992     0.15900
C73         C  0.25751242  0.73647964  0.75488768     0.22000
C74         C  0.27731554  0.65542780  0.73084097    -0.52800
C75         C  0.24949883  0.68252005  0.75958096     0.11200
C76         C  0.27811629  0.72014795  0.67355300    -0.52400
C77         C  0.25026902  0.74695920  0.70262279     0.11700
H78         H  0.37820667  0.71758387  0.73514286     0.16200
H79         H  0.23472265  0.75842946  0.77842484     0.02000
H80         H  0.27579054  0.61668467  0.73011533     0.16500
H81         H  0.27719269  0.72345102  0.63562733     0.16300
C82         C  0.31209418  0.31401128  0.70050835     0.88100
C83         C  0.28005402  0.34368574  0.73311926    -0.52100
C84         C  0.25170322  0.31639642  0.76129147     0.11100
C85         C  0.25803514  0.26243591  0.75446402     0.22000
C86         C  0.34025307  0.28066549  0.73300483    -0.52800
C87         C  0.31165087  0.25374325  0.76117802     0.11200
C88         C  0.27777203  0.28117296  0.67344466    -0.52400
C89         C  0.24953775  0.25415409  0.70199103     0.11700
H90         H  0.27954462  0.38245462  0.73358994     0.16200
H91         H  0.23497514  0.24031177  0.77757396     0.02000
H92         H  0.37896530  0.27829800  0.73345985     0.16500
H93         H  0.27620240  0.27924782  0.63544846     0.16300
N94         N  0.99907448  0.92615445  0.65558940    -0.35000
N95         N  0.92456245  0.99936100  0.65019573    -0.55500
N96         N  0.99837696  0.07357751  0.65294266    -0.35000
N97         N  0.07288801  0.00045542  0.65201574    -0.55500
C98         C  0.96035679  0.89811701  0.64874029     0.28600
C99         C  0.03836497  0.89869726  0.64974404     0.28600
C100        C  0.95921521  0.10121053  0.64709972     0.28600
C101        C  0.03727615  0.10175409  0.64781038     0.28600
C102        C  0.89652995  0.96048224  0.65598553     0.37200
C103        C  0.89610985  0.03804467  0.65531895     0.37200
C104        C  0.10125918  0.96191478  0.65820209     0.37200
C105        C  0.10092078  0.03941818  0.65719507     0.37200
C106        C  0.97527232  0.85191962  0.63900868    -0.20300
C107        C  0.02440911  0.85228450  0.63964773    -0.20300
C108        C  0.97344558  0.14781316  0.63827091    -0.20300
C109        C  0.02258784  0.14815466  0.63873186    -0.20300
C110        C  0.84975144  0.97456757  0.66384878    -0.21300
C111        C  0.84948560  0.02356932  0.66342611    -0.21300
C112        C  0.14783090  0.97649700  0.66640093    -0.21300
C113        C  0.14761566  0.02546681  0.66576104    -0.21300
C114        C  0.91203321  0.91243202  0.65312267    -0.16700
C115        C  0.08633764  0.91371744  0.65532091    -0.16700
C116        C  0.08548982  0.08743264  0.65349519    -0.16700
C117        C  0.91111583  0.08626863  0.65211998    -0.16700
H118        H  0.95308002  0.82103162  0.63235832     0.16300
H119        H  0.04723974  0.82173399  0.63356463     0.16300
H120        H  0.95079294  0.17858080  0.63262761     0.16300
H121        H  0.04492008  0.17922479  0.63351303     0.16300
H122        H  0.81896803  0.95193406  0.66943143     0.14500
H123        H  0.81844749  0.04595362  0.66863548     0.14500
H124        H  0.17882501  0.95421194  0.67224354     0.14500
H125        H  0.17839756  0.04816780  0.67106631     0.14500
H126        H  0.99871292  0.96132195  0.66612176     0.27800
H127        H  0.99845976  0.03818795  0.66251394     0.27800
C128        C  0.68449401  0.68581406  0.30614907     0.88100
C129        C  0.65597110  0.71869131  0.27351021    -0.52100
C130        C  0.68422562  0.74658348  0.24593054     0.11100
C131        C  0.73796328  0.73906136  0.25322664     0.22000
C132        C  0.71765621  0.65715957  0.27383757    -0.52800
C133        C  0.74566526  0.68530690  0.24621186     0.11200
C134        C  0.71768509  0.71924999  0.33389726    -0.52400
C135        C  0.74566387  0.74709428  0.30584165     0.11700
H136        H  0.61722138  0.72011597  0.27260411     0.16200
H137        H  0.76079803  0.76185519  0.23053420     0.02000
H138        H  0.71906392  0.61841387  0.27307429     0.16500
H139        H  0.71891512  0.72074388  0.37192377     0.16300
C140        C  0.31026193  0.68493892  0.30595513     0.88100
C141        C  0.27734833  0.65501486  0.27458127    -0.52100
C142        C  0.24968766  0.68201930  0.24559393     0.11100
C143        C  0.25740030  0.73600750  0.25044584     0.22000
C144        C  0.33916113  0.71631871  0.27228079    -0.52800
C145        C  0.31119131  0.74309325  0.24341149     0.11200
C146        C  0.27692874  0.71966153  0.33201474    -0.52400
C147        C  0.24928037  0.74638458  0.30258148     0.11700
H148        H  0.27585853  0.61627176  0.27538916     0.16200
H149        H  0.23484555  0.75788421  0.22662756     0.02000
H150        H  0.37791409  0.71791662  0.27190474     0.16500
H151        H  0.27547075  0.72289016  0.36992515     0.16300
N152        N  0.07174188  0.61874679  0.00306678    -0.35000
N153        N  0.99841596  0.62341806  0.93052898    -0.55500
N154        N  0.92407300  0.62048800  0.00257332    -0.35000
N155        N  0.99756485  0.62233532  0.07511559    -0.55500
C156        C  0.09908981  0.62801779  0.96505111     0.28600
C157        C  0.09862824  0.62764623  0.04147455     0.28600
C158        C  0.89744789  0.63064807  0.96428010     0.28600
C159        C  0.89703146  0.63017803  0.04073380     0.28600
C160        C  0.03712986  0.61881895  0.90265225     0.37200
C161        C  0.95981600  0.61996362  0.90236645     0.37200
C162        C  0.03607374  0.61662747  0.10306368     0.37200
C163        C  0.95872503  0.61772149  0.10282485     0.37200
C164        C  0.14429479  0.64191351  0.97950769    -0.20300
C165        C  0.14399463  0.64172223  0.02764338    -0.20300
C166        C  0.85248279  0.64577041  0.97830131    -0.20300
C167        C  0.85223221  0.64550494  0.02644211    -0.20300
C168        C  0.02305681  0.61293552  0.85641360    -0.21300
C169        C  0.97409557  0.61367194  0.85622954    -0.21300
C170        C  0.02162822  0.60867131  0.14888762    -0.21300
C171        C  0.97263416  0.60937622  0.14873766    -0.21300
C172        C  0.08491693  0.62347648  0.91768500    -0.16700
C173        C  0.08394808  0.62240386  0.08863898    -0.16700
C174        C  0.91113659  0.62486088  0.08808059    -0.16700
C175        C  0.91205657  0.62601726  0.91702309    -0.16700
H176        H  0.17439759  0.65150604  0.95767805     0.16300
H177        H  0.17385239  0.65108937  0.04988474     0.16300
H178        H  0.82293111  0.65633519  0.95617688     0.16300
H179        H  0.82244030  0.65578012  0.04838391     0.16300
H180        H  0.04569367  0.60929230  0.82588018     0.14500
H181        H  0.95161183  0.61069438  0.82551945     0.14500
H182        H  0.04405368  0.60369700  0.17938898     0.14500
H183        H  0.94987610  0.60503787  0.17909340     0.14500
H184        H  0.03730746  0.60538169  0.00282692     0.27800
H185        H  0.95815708  0.60622874  0.00260620     0.27800
C186        C  0.31011436  0.31350157  0.30697891     0.88100
C187        C  0.33776270  0.28093221  0.27332925    -0.52100
C188        C  0.30874343  0.25376339  0.24580864     0.11100
C189        C  0.25523325  0.26146208  0.25426441     0.22000
C190        C  0.27658074  0.34288756  0.27560817    -0.52800
C191        C  0.24789210  0.31534893  0.24801800     0.11200
C192        C  0.27722925  0.27991087  0.33481603    -0.52400
C193        C  0.24850527  0.25271038  0.30692908     0.11700
H194        H  0.37647485  0.27934233  0.27156462     0.16200
H195        H  0.23182679  0.23916015  0.23166101     0.02000
H196        H  0.27570456  0.38165020  0.27516265     0.16500
H197        H  0.27675191  0.27782022  0.37283366     0.16300
N198        N  0.92356944  0.99986134  0.36084117    -0.35000
N199        N  0.99743956  0.07396965  0.36036249    -0.55500
N200        N  0.07172476  0.99994769  0.36062491    -0.35000
N201        N  0.99772396  0.92602770  0.35538950    -0.55500
C202        C  0.89568056  0.03905422  0.35610713     0.28600
C203        C  0.89584412  0.96098790  0.35351521     0.28600
C204        C  0.09907968  0.03925286  0.35413304     0.28600
C205        C  0.09920235  0.96124409  0.35152636     0.28600
C206        C  0.95865362  0.10251691  0.36383400     0.37200
C207        C  0.03620417  0.10257583  0.36326992     0.37200
C208        C  0.95899326  0.89730332  0.35767160     0.37200
C209        C  0.03655279  0.89738232  0.35710493     0.37200
C210        C  0.84920333  0.02477142  0.34675727    -0.20300
C211        C  0.84931207  0.97571053  0.34509627    -0.20300
C212        C  0.14501045  0.02520668  0.34218512    -0.20300
C213        C  0.14508124  0.97618724  0.34053365    -0.20300
C214        C  0.97293534  0.14967608  0.36863627    -0.21300
C215        C  0.02192270  0.14971213  0.36826907    -0.21300
C216        C  0.97337144  0.85000251  0.36054747    -0.21300
C217        C  0.02237521  0.85005695  0.36019980    -0.21300
C218        C  0.91054767  0.08733951  0.36010075    -0.16700
C219        C  0.91086029  0.91258838  0.35461896    -0.16700
C220        C  0.08451699  0.91278795  0.35289175    -0.16700
C221        C  0.08422331  0.08747815  0.35855286    -0.16700
H222        H  0.81831739  0.04732111  0.34136147     0.16300
H223        H  0.81852159  0.95346818  0.33820106     0.16300
H224        H  0.17534908  0.04790069  0.33480054     0.16300
H225        H  0.17548261  0.95412324  0.33167186     0.16300
H226        H  0.95043126  0.18094700  0.37149036     0.14500
H227        H  0.04442215  0.18101208  0.37073932     0.14500
H228        H  0.95091814  0.81861135  0.36215110     0.14500
H229        H  0.04495531  0.81873068  0.36144333     0.14500
H230        H  0.95930327  0.99959661  0.36962021     0.27800
H231        H  0.03659064  0.99954222  0.37164234     0.27800
N232        N  0.36296030  0.92575057  0.00383406    -0.35000
N233        N  0.36679620  0.99881831  0.93081510    -0.55500
N234        N  0.36289461  0.07253867  0.00333353    -0.35000
N235        N  0.36663305  0.99954673  0.07637294    -0.55500
C236        C  0.36957375  0.89786690  0.96573951     0.28600
C237        C  0.36967502  0.89823615  0.04215544     0.28600
C238        C  0.36956417  0.10008809  0.96502935     0.28600
C239        C  0.36918708  0.10045353  0.04144678     0.28600
C240        C  0.36045467  0.96004369  0.90336006     0.37200
C241        C  0.36038943  0.03739532  0.90311318     0.37200
C242        C  0.36072028  0.96094614  0.10413591     0.37200
C243        C  0.36019548  0.03828981  0.10384939     0.37200
C244        C  0.38004037  0.85169693  0.98005186    -0.20300
C245        C  0.38009483  0.85192451  0.02822282    -0.20300
C246        C  0.37985588  0.14641110  0.97899120    -0.20300
C247        C  0.37959583  0.14664394  0.02717588    -0.20300
C248        C  0.35105698  0.97406572  0.85767125    -0.21300
C249        C  0.35100025  0.02303942  0.85751597    -0.21300
C250        C  0.35164283  0.97525198  0.14981092    -0.21300
C251        C  0.35128056  0.02422415  0.14962287    -0.21300
C252        C  0.36400824  0.91216515  0.91853970    -0.16700
C253        C  0.36427750  0.91297870  0.08924694    -0.16700
C254        C  0.36314836  0.08618668  0.08859148    -0.16700
C255        C  0.36389097  0.08538989  0.91795621    -0.16700
H256        H  0.38663745  0.82089563  0.95809134     0.16300
H257        H  0.38674356  0.82132280  0.05043717     0.16300
H258        H  0.38638044  0.17704211  0.95678428     0.16300
H259        H  0.38591498  0.17747276  0.04917590     0.16300
H260        H  0.34471304  0.95140696  0.82758948     0.14500
H261        H  0.34461070  0.04547695  0.82728118     0.14500
H262        H  0.34568362  0.95278032  0.18010553     0.14500
H263        H  0.34502894  0.04684871  0.17975002     0.14500
H264        H  0.35182740  0.96086239  0.00371018     0.27800
H265        H  0.35175646  0.03743286  0.00343303     0.27800
N266        N  0.92284066  0.38198032  0.00385864    -0.35000
N267        N  0.99711678  0.37864532  0.07573965    -0.55500
N268        N  0.07088408  0.37969912  0.00304331    -0.35000
N269        N  0.99661739  0.37674534  0.93114969    -0.55500
C270        C  0.89575319  0.37400525  0.04234790     0.28600
C271        C  0.89536272  0.37312704  0.96585896     0.28600
C272        C  0.09791909  0.37054751  0.04133427     0.28600
C273        C  0.09772825  0.36970030  0.96483000     0.28600
C274        C  0.95865371  0.38494968  0.10366693     0.37200
C275        C  0.03604866  0.38360267  0.10329068     0.37200
C276        C  0.95777139  0.38092626  0.90332454     0.37200
C277        C  0.03524864  0.37952431  0.90283039     0.37200
C278        C  0.85003107  0.36103690  0.02858128    -0.20300
C279        C  0.84976399  0.36055001  0.98040819    -0.20300
C280        C  0.14294658  0.35571718  0.02721623    -0.20300
C281        C  0.14284776  0.35524190  0.97906648    -0.20300
C282        C  0.97323498  0.39372595  0.14929737    -0.21300
C283        C  0.02223058  0.39286763  0.14905878    -0.21300
C284        C  0.97183636  0.38592600  0.85697031    -0.21300
C285        C  0.02083125  0.38500743  0.85666211    -0.21300
C286        C  0.91068490  0.37901716  0.08949872    -0.16700
C287        C  0.90984051  0.37675134  0.91843591    -0.16700
C288        C  0.08317770  0.37383823  0.91746317    -0.16700
C289        C  0.08364938  0.37604976  0.08864358    -0.16700
H290        H  0.81991537  0.35265555  0.05087505     0.16300
H291        H  0.81941460  0.35163767  0.95862614     0.16300
H292        H  0.17283228  0.34599417  0.04927795     0.16300
H293        H  0.17262144  0.34498650  0.95709095     0.16300
H294        H  0.95088961  0.39942894  0.17973235     0.14500
H295        H  0.04506039  0.39777753  0.17927608     0.14500
H296        H  0.94915876  0.38910236  0.82641687     0.14500
H297        H  0.04324492  0.38734177  0.82585290     0.14500
H298        H  0.95763419  0.39430005  0.00348509     0.27800
H299        H  0.03663114  0.39350255  0.00300027     0.27800
C300        C  0.68596260  0.31449510  0.30757235     0.88100
C301        C  0.71924319  0.34343082  0.27578795    -0.52100
C302        C  0.74806151  0.31564756  0.24871233     0.11100
C303        C  0.74102772  0.26172772  0.25575951     0.22000
C304        C  0.65840653  0.28112252  0.27456126    -0.52800
C305        C  0.68747749  0.25341820  0.24752537     0.11200
C306        C  0.71901699  0.28159191  0.33601662    -0.52400
C307        C  0.74782763  0.25394972  0.30860937     0.11700
H308        H  0.72003147  0.38219717  0.27484343     0.16200
H309        H  0.76458700  0.23919059  0.23354254     0.02000
H310        H  0.61969990  0.27927155  0.27301269     0.16500
H311        H  0.71944886  0.28016831  0.37406553     0.16300
N312        N  0.62145251  0.07453581  0.00363913    -0.35000
N313        N  0.62540658  0.00052187  0.07605841    -0.55500
N314        N  0.62379295  0.92657313  0.00346995    -0.35000
N315        N  0.62590993  0.00059052  0.93102308    -0.55500
C316        C  0.62958940  0.10199342  0.04189911     0.28600
C317        C  0.62873981  0.10209773  0.96531342     0.28600
C318        C  0.63140093  0.89919061  0.04181753     0.28600
C319        C  0.63262381  0.89925531  0.96531827     0.28600
C320        C  0.62253131  0.03920185  0.10422722     0.37200
C321        C  0.62231689  0.96176588  0.10409741     0.37200
C322        C  0.62244852  0.03924852  0.90288001     0.37200
C323        C  0.62444030  0.96180416  0.90287186     0.37200
C324        C  0.64066528  0.14802863  0.02762498    -0.20300
C325        C  0.64005645  0.14811653  0.97949176    -0.20300
C326        C  0.64393798  0.85343229  0.02778286    -0.20300
C327        C  0.64473855  0.85348153  0.97966533    -0.20300
C328        C  0.61790007  0.02490930  0.15054256    -0.21300
C329        C  0.61766594  0.97593309  0.15045421    -0.21300
C330        C  0.61908245  0.02490297  0.85646191    -0.21300
C331        C  0.62037796  0.97593445  0.85645751    -0.21300
C332        C  0.62735078  0.08712388  0.08936669    -0.16700
C333        C  0.62579155  0.08728593  0.91786816    -0.16700
C334        C  0.62981096  0.91397592  0.91789290    -0.16700
C335        C  0.62719963  0.91388443  0.08914316    -0.16700
H336        H  0.64888153  0.17844882  0.04956100     0.16300
H337        H  0.64779776  0.17860752  0.95748268     0.16300
H338        H  0.65215337  0.82311987  0.04987236     0.16300
H339        H  0.65365281  0.82320284  0.95779493     0.16300
H340        H  0.61562648  0.04740448  0.18129991     0.14500
H341        H  0.61527982  0.95335584  0.18114713     0.14500
H342        H  0.61678177  0.04737632  0.82568982     0.14500
H343        H  0.61921368  0.95335896  0.82569544     0.14500
H344        H  0.61067621  0.03930258  0.00363718     0.27800
H345        H  0.61206825  0.96149928  0.00336877     0.27800
C346        C  0.66958709  0.21843243  0.21484707    -0.16900
C347        C  0.65643973  0.18854988  0.18727926     0.07200
C348        C  0.64333115  0.15328233  0.15428737     0.09000
C349        C  0.63448371  0.12320935  0.12526777    -0.17700
C350        C  0.78229341  0.33533571  0.21639426    -0.16900
C351        C  0.81119110  0.35028289  0.18877690     0.07200
C352        C  0.84541137  0.36471975  0.15538459     0.09000
C353        C  0.87494469  0.37343685  0.12586905    -0.17700
C354        C  0.87408622  0.12414060  0.35657820    -0.16900
C355        C  0.84433915  0.15474579  0.35052259     0.07200
C356        C  0.81011838  0.19020671  0.33967742     0.09000
C357        C  0.78143462  0.21978093  0.32726058    -0.17700
C358        C  0.11972141  0.36969644  0.12464682    -0.16900
C359        C  0.14970564  0.36134092  0.15387782     0.07200
C360        C  0.18453460  0.34840818  0.18735426     0.09000
C361        C  0.21375638  0.33483078  0.21538388    -0.17700
C362        C  0.32652858  0.22000526  0.21213776    -0.16900
C363        C  0.33889071  0.19045216  0.18406275     0.07200
C364        C  0.35050510  0.15462346  0.15141116     0.09000
C365        C  0.35786408  0.12346831  0.12328608    -0.17700
C366        C  0.21465823  0.21847929  0.32493877    -0.16900
C367        C  0.18548871  0.18922365  0.33689791     0.07200
C368        C  0.15062576  0.15440642  0.34760624     0.09000
C369        C  0.12055352  0.12424374  0.35405659    -0.17700
C370        C  0.21543213  0.66186856  0.21364321    -0.16900
C371        C  0.18580404  0.64777693  0.18638325     0.07200
C372        C  0.15040432  0.63489274  0.15364158     0.09000
C373        C  0.12004341  0.62730287  0.12468680    -0.17700
C374        C  0.33015503  0.77740095  0.21101733    -0.16900
C375        C  0.34290779  0.80788970  0.18416042     0.07200
C376        C  0.35408271  0.84460008  0.15240971     0.09000
C377        C  0.36043935  0.87600748  0.12437291    -0.17700
C378        C  0.21541776  0.78172535  0.31849098    -0.16900
C379        C  0.18619215  0.81158554  0.32888898     0.07200
C380        C  0.15117533  0.84652823  0.33894911     0.09000
C381        C  0.12096502  0.87641855  0.34618689    -0.17700
C382        C  0.78020848  0.66642682  0.21370867    -0.16900
C383        C  0.80980240  0.65288624  0.18607731     0.07200
C384        C  0.84489664  0.63977520  0.15299642     0.09000
C385        C  0.87499135  0.63129783  0.12394492    -0.17700
C386        C  0.63252090  0.87755321  0.12492482    -0.16900
C387        C  0.64006952  0.84698544  0.15367752     0.07200
C388        C  0.65231996  0.81123700  0.18627834     0.09000
C389        C  0.66547137  0.78123276  0.21358752    -0.17700
C390        C  0.77974548  0.78132272  0.32344523    -0.16900
C391        C  0.80916267  0.81076129  0.33437118     0.07200
C392        C  0.84421347  0.84580068  0.34380274     0.09000
C393        C  0.87437421  0.87600484  0.34973530    -0.17700
C394        C  0.12141618  0.12468032  0.65745598    -0.16900
C395        C  0.15127664  0.15517677  0.66346850     0.07200
C396        C  0.18599541  0.19038858  0.67353714     0.09000
C397        C  0.21520430  0.21991448  0.68481754    -0.17700
C398        C  0.35956761  0.12233503  0.88280520    -0.16900
C399        C  0.35300786  0.15326796  0.85426695     0.07200
C400        C  0.34204219  0.18915244  0.82147511     0.09000
C401        C  0.32982387  0.21915194  0.79380671    -0.17700
C402        C  0.11963711  0.36828123  0.88162734    -0.16900
C403        C  0.15079925  0.36103611  0.85326491     0.07200
C404        C  0.18732493  0.34923421  0.82108386     0.09000
C405        C  0.21753402  0.33609342  0.79383307    -0.17700
C406        C  0.21557700  0.66238193  0.79184268    -0.16900
C407        C  0.18653011  0.64819005  0.81962558     0.07200
C408        C  0.15171677  0.63536745  0.85294983     0.09000
C409        C  0.12146653  0.62806602  0.88206435    -0.17700
C410        C  0.12272358  0.87705800  0.65929480    -0.16900
C411        C  0.15304572  0.84708416  0.66521688     0.07200
C412        C  0.18802405  0.81220964  0.67509007     0.09000
C413        C  0.21695852  0.78238130  0.68608296    -0.17700
C414        C  0.36000633  0.87488277  0.88367402    -0.16900
C415        C  0.35356074  0.84341496  0.85566876     0.07200
C416        C  0.34240636  0.80695257  0.82354186     0.09000
C417        C  0.32986554  0.77692329  0.79603594    -0.17700
C418        C  0.66661962  0.21960910  0.79349916    -0.16900
C419        C  0.65291426  0.18980667  0.82084783     0.07200
C420        C  0.63968562  0.15420688  0.85337867     0.09000
C421        C  0.63144629  0.12368535  0.88207738    -0.17700
C422        C  0.78184445  0.21895807  0.68453579    -0.16900
C423        C  0.81096893  0.18933929  0.67324664     0.07200
C424        C  0.84532281  0.15387015  0.66282548     0.09000
C425        C  0.87493222  0.12321653  0.65639433    -0.17700
C426        C  0.87334519  0.37172990  0.88275389    -0.16900
C427        C  0.84325284  0.36403934  0.85353841     0.07200
C428        C  0.80859574  0.35084963  0.82013172     0.09000
C429        C  0.77961567  0.33646266  0.79233970    -0.17700
C430        C  0.66915457  0.78142862  0.79313698    -0.16900
C431        C  0.65663174  0.81135088  0.82086027     0.07200
C432        C  0.64447157  0.84708228  0.85358565     0.09000
C433        C  0.63640830  0.87767359  0.88222269    -0.17700
C434        C  0.78158467  0.66531729  0.79080017    -0.16900
C435        C  0.81108193  0.65191432  0.81849702     0.07200
C436        C  0.84604433  0.63951320  0.85181157     0.09000
C437        C  0.87603736  0.63181775  0.88107502    -0.17700
C438        C  0.78149498  0.78029811  0.68100088    -0.16900
C439        C  0.81099725  0.80952947  0.66981264     0.07200
C440        C  0.84603537  0.84464222  0.66071079     0.09000
C441        C  0.87602437  0.87519538  0.65584689    -0.17700
C442        C  0.65413803  0.65670246  0.66999447    -0.11600
C443        C  0.62989921  0.63307422  0.64390957    -0.13200
C444        C  0.65503330  0.34300699  0.66886557    -0.11600
C445        C  0.63088216  0.36701509  0.64302196    -0.13200
C446        C  0.36427367  0.63256478  0.64229364    -0.11600
C447        C  0.34068706  0.65616274  0.66892027    -0.13200
C448        C  0.63004021  0.63206622  0.36200083    -0.11600
C449        C  0.65420703  0.65581814  0.33598863    -0.13200
C450        C  0.34257343  0.34304177  0.66987158    -0.11600
C451        C  0.36647014  0.36637959  0.64322302    -0.13200
C452        C  0.34022911  0.65604498  0.33707718    -0.11600
C453        C  0.36439273  0.63256383  0.36331073    -0.13200
C454        C  0.65512718  0.34453837  0.33674217    -0.11600
C455        C  0.63102826  0.36887322  0.36224922    -0.13200
C456        C  0.34112650  0.34279287  0.33682183    -0.11600
C457        C  0.36561265  0.36631380  0.36277872    -0.13200
loop_ 
_geom_bond_atom_site_label_1 
_geom_bond_atom_site_label_2 
_geom_bond_distance 
_geom_bond_site_symmetry_2 
_ccdc_geom_bond_type 
N1            N2   1.320       .  A
N1            N7   1.316       .  A
N1          Mn30   2.201       .  S
N2            C9   1.350       .  A
N3            N5   1.317       .  A
N3            N4   1.321       .  A
N3          Mn19   2.202       .  S
N4           C10   1.351       .  A
N5            N6   1.320       .  A
N5          Mn30   2.199       .  S
N6           C10   1.350       .  A
N7            N8   1.320       .  A
N7          Mn19   2.200       .  S
N8            C9   1.350       .  A
C9          C453   1.433       .  S
C10         C446   1.433       .  S
N11          N17   1.316       .  A
N11          N12   1.321       .  A
N11         Mn41   2.199       .  S
N12          C20   1.350       .  A
N13          N14   1.320       .  A
N13          N15   1.316       .  A
N13         Mn19   2.202       .  S
N14          C21   1.350       .  A
N15          N16   1.321       .  A
N15         Mn41   2.201       .  S
N16          C21   1.351       .  A
N17          N18   1.321       .  A
N17         Mn19   2.204       .  S
N18          C20   1.351       .  A
Mn19        Cl43   2.546       .  S
C20         C451   1.435       .  S
C21         C457   1.435       .  S
N22          N23   1.321       .  A
N22          N28   1.316       .  A
N22         Mn30   2.205       .  S
N23          C31   1.351       .  A
N24          N26   1.316       .  A
N24          N25   1.320       .  A
N24         Mn42   2.199       .  S
N25          C32   1.350       .  A
N26          N27   1.321       .  A
N26         Mn30   2.202       .  S
N27          C32   1.351       .  A
N28          N29   1.320       .  A
N28         Mn42   2.201       .  S
N29          C31   1.350       .  A
Mn30        Cl43   2.545       .  S
C31         C443   1.435       .  S
C32         C448   1.434       .  S
N33          N34   1.320       .  A
N33          N39   1.316       .  A
N33         Mn41   2.198       .  S
N34          C44   1.350       .  A
N35          N36   1.321       .  A
N35          N37   1.316       .  A
N35         Mn42   2.203       .  S
N36          C45   1.351       .  A
N37          N38   1.320       .  A
N37         Mn41   2.201       .  S
N38          C45   1.350       .  A
N39          N40   1.320       .  A
N39         Mn42   2.199       .  S
N40          C44   1.351       .  A
Mn41        Cl43   2.545       .  S
Mn42        Cl43   2.547       .  S
C44         C455   1.433       .  S
C45         C445   1.435       .  S
C46          C47   1.535       .  S
C46          C52   1.539       .  S
C46          C50   1.536       .  S
C46         C442   1.467       .  S
C47          H54   1.087       .  S
C47          C48   1.363       .  D
C48          C49   1.534       .  S
C48         C434   1.438       .  S
C49          C53   1.533       .  S
C49          C51   1.534       .  S
C49          H55   1.112       .  S
C50          H56   1.086       .  S
C50          C51   1.364       .  D
C51         C430   1.440       .  S
C52          H57   1.086       .  S
C52          C53   1.365       .  D
C53         C438   1.443       .  S
C58          C59   1.535       .  S
C58          C64   1.539       .  S
C58          C62   1.534       .  S
C58         C444   1.468       .  S
C59          H66   1.087       .  S
C59          C60   1.363       .  D
C60          C61   1.536       .  S
C60         C418   1.442       .  S
C61          C65   1.535       .  S
C61          C63   1.536       .  S
C61          H67   1.112       .  S
C62          H68   1.087       .  S
C62          C63   1.362       .  D
C63         C429   1.440       .  S
C64          H69   1.086       .  S
C64          C65   1.366       .  D
C65         C422   1.445       .  S
C70          C71   1.535       .  S
C70          C76   1.538       .  S
C70          C74   1.534       .  S
C70         C447   1.465       .  S
C71          H78   1.086       .  S
C71          C72   1.363       .  D
C72          C73   1.533       .  S
C72         C417   1.437       .  S
C73          C77   1.533       .  S
C73          C75   1.534       .  S
C73          H79   1.112       .  S
C74          H80   1.087       .  S
C74          C75   1.362       .  D
C75         C406   1.438       .  S
C76          H81   1.086       .  S
C76          C77   1.364       .  D
C77         C413   1.442       .  S
C82          C83   1.537       .  S
C82          C88   1.539       .  S
C82          C86   1.535       .  S
C82         C450   1.468       .  S
C83          H90   1.086       .  S
C83          C84   1.365       .  D
C84          C85   1.535       .  S
C84         C405   1.443       .  S
C85          C89   1.534       .  S
C85          C87   1.534       .  S
C85          H91   1.112       .  S
C86          H92   1.087       .  S
C86          C87   1.363       .  D
C87         C401   1.437       .  S
C88          H93   1.086       .  S
C88          C89   1.365       .  D
C89         C397   1.444       .  S
N94          C99   1.353   1_655  A
N94          C98   1.354       .  A
N94         H126   1.030       .  S
N95         C102   1.353       .  A
N95         C103   1.353   1_565  A
N96         C101   1.354   1_655  A
N96         C100   1.353       .  A
N96         H127   1.028       .  S
N97         C104   1.352   1_545  A
N97         C105   1.353       .  A
C98         C106   1.388       .  A
C98         C114   1.417       .  A
C99         C115   1.417       .  A
C99         C107   1.388       .  A
C100        C108   1.388       .  A
C100        C117   1.418       .  A
C101        C116   1.418       .  A
C101        C109   1.388       .  A
C102        C114   1.417       .  A
C102        C110   1.387       .  A
C103        C117   1.418       .  A
C103        C111   1.387       .  A
C104        C112   1.387       .  A
C104        C115   1.416       .  A
C105        C113   1.387       .  A
C105        C116   1.417       .  A
C106        C107   1.377   1_655  A
C106        H118   1.082       .  S
C107        H119   1.082       .  S
C108        C109   1.377   1_655  A
C108        H120   1.082       .  S
C109        H121   1.082       .  S
C110        C111   1.373   1_565  A
C110        H122   1.082       .  S
C111        H123   1.082       .  S
C112        C113   1.372   1_565  A
C112        H124   1.082       .  S
C113        H125   1.082       .  S
C114        C441   1.453       .  S
C115        C410   1.451       .  S
C116        C394   1.454       .  S
C117        C425   1.454       .  S
C128        C129   1.534       .  S
C128        C134   1.539       .  S
C128        C132   1.535       .  S
C128        C449   1.467       .  S
C129        H136   1.087       .  S
C129        C130   1.363       .  D
C130        C131   1.534       .  S
C130        C389   1.439       .  S
C131        C135   1.533       .  S
C131        C133   1.535       .  S
C131        H137   1.112       .  S
C132        H138   1.087       .  S
C132        C133   1.364       .  D
C133        C382   1.441       .  S
C134        H139   1.086       .  S
C134        C135   1.365       .  D
C135        C390   1.444       .  S
C140        C141   1.535       .  S
C140        C146   1.540       .  S
C140        C144   1.534       .  S
C140        C452   1.466       .  S
C141        H148   1.087       .  S
C141        C142   1.363       .  D
C142        C143   1.534       .  S
C142        C370   1.439       .  S
C143        C147   1.533       .  S
C143        C145   1.533       .  S
C143        H149   1.112       .  S
C144        H150   1.087       .  S
C144        C145   1.362       .  D
C145        C374   1.436       .  S
C146        H151   1.086       .  S
C146        C147   1.366       .  D
C147        C378   1.444       .  S
N152        C157   1.353       .  A
N152        C156   1.353   1_554  A
N152        H184   1.035       .  S
N153        C160   1.351   1_655  A
N153        C161   1.351       .  A
N154        C159   1.354       .  A
N154        C158   1.353   1_554  A
N154        H185   1.035       .  S
N155        C162   1.351   1_655  A
N155        C163   1.351       .  A
C156        C164   1.388       .  A
C156        C172   1.414       .  A
C157        C173   1.415       .  A
C157        C165   1.388       .  A
C158        C166   1.388       .  A
C158        C175   1.415       .  A
C159        C174   1.415       .  A
C159        C167   1.388       .  A
C160        C172   1.412       .  A
C160        C168   1.387       .  A
C161        C175   1.412       .  A
C161        C169   1.387       .  A
C162        C170   1.387       .  A
C162        C173   1.412       .  A
C163        C171   1.387       .  A
C163        C174   1.412       .  A
C164        C165   1.374   1_556  A
C164        H176   1.082       .  S
C165        H177   1.082       .  S
C166        C167   1.374   1_556  A
C166        H178   1.082       .  S
C167        H179   1.082       .  S
C168        C169   1.372   1_455  A
C168        H180   1.082       .  S
C169        H181   1.082       .  S
C170        C171   1.373   1_455  A
C170        H182   1.082       .  S
C171        H183   1.082       .  S
C172        C409   1.448       .  S
C173        C373   1.449       .  S
C174        C385   1.451       .  S
C175        C437   1.448       .  S
C186        C187   1.534       .  S
C186        C192   1.538       .  S
C186        C190   1.537       .  S
C186        C456   1.468       .  S
C187        H194   1.087       .  S
C187        C188   1.363       .  D
C188        C189   1.534       .  S
C188        C362   1.437       .  S
C189        C193   1.534       .  S
C189        C191   1.534       .  S
C189        H195   1.112       .  S
C190        H196   1.086       .  S
C190        C191   1.364       .  D
C191        C361   1.442       .  S
C192        H197   1.086       .  S
C192        C193   1.364       .  D
C193        C366   1.443       .  S
N198        C203   1.354       .  A
N198        C202   1.354   1_565  A
N198        H230   1.032       .  S
N199        C206   1.353       .  A
N199        C207   1.352   1_655  A
N200        C205   1.355       .  A
N200        C204   1.355   1_565  A
N200        H231   1.033       .  S
N201        C208   1.353       .  A
N201        C209   1.353   1_655  A
C202        C210   1.388       .  A
C202        C218   1.420       .  A
C203        C219   1.420       .  A
C203        C211   1.388       .  A
C204        C212   1.388       .  A
C204        C221   1.419       .  A
C205        C220   1.419       .  A
C205        C213   1.388       .  A
C206        C218   1.417       .  A
C206        C214   1.387       .  A
C207        C221   1.417       .  A
C207        C215   1.387       .  A
C208        C216   1.388       .  A
C208        C219   1.417       .  A
C209        C217   1.387       .  A
C209        C220   1.417       .  A
C210        C211   1.375   1_545  A
C210        H222   1.082       .  S
C211        H223   1.082       .  S
C212        C213   1.374   1_545  A
C212        H224   1.082       .  S
C213        H225   1.082       .  S
C214        C215   1.372   1_655  A
C214        H226   1.082       .  S
C215        H227   1.082       .  S
C216        C217   1.373   1_655  A
C216        H228   1.082       .  S
C217        H229   1.082       .  S
C218        C354   1.455       .  S
C219        C393   1.454       .  S
C220        C381   1.455       .  S
C221        C369   1.454       .  S
N232        C237   1.351       .  A
N232        C236   1.351   1_554  A
N232        H264   1.032       .  S
N233        C240   1.351       .  A
N233        C241   1.351   1_565  A
N234        C239   1.351       .  A
N234        C238   1.351   1_554  A
N234        H265   1.032       .  S
N235        C242   1.351       .  A
N235        C243   1.351   1_565  A
C236        C244   1.388       .  A
C236        C252   1.414       .  A
C237        C253   1.414       .  A
C237        C245   1.388       .  A
C238        C246   1.388       .  A
C238        C255   1.414       .  A
C239        C254   1.414       .  A
C239        C247   1.388       .  A
C240        C252   1.413       .  A
C240        C248   1.387       .  A
C241        C255   1.413       .  A
C241        C249   1.387       .  A
C242        C250   1.387       .  A
C242        C253   1.413       .  A
C243        C251   1.387       .  A
C243        C254   1.413       .  A
C244        C245   1.375   1_556  A
C244        H256   1.082       .  S
C245        H257   1.082       .  S
C246        C247   1.375   1_556  A
C246        H258   1.082       .  S
C247        H259   1.082       .  S
C248        C249   1.372   1_565  A
C248        H260   1.082       .  S
C249        H261   1.082       .  S
C250        C251   1.372   1_565  A
C250        H262   1.082       .  S
C251        H263   1.082       .  S
C252        C414   1.447       .  S
C253        C377   1.445       .  S
C254        C365   1.447       .  S
C255        C398   1.446       .  S
N266        C271   1.353   1_554  A
N266        C270   1.354       .  A
N266        H298   1.034       .  S
N267        C274   1.352       .  A
N267        C275   1.352   1_655  A
N268        C273   1.354   1_554  A
N268        C272   1.354       .  A
N268        H299   1.035       .  S
N269        C276   1.352       .  A
N269        C277   1.353   1_655  A
C270        C278   1.388       .  A
C270        C286   1.416       .  A
C271        C287   1.416       .  A
C271        C279   1.389       .  A
C272        C280   1.388       .  A
C272        C289   1.416       .  A
C273        C288   1.416       .  A
C273        C281   1.388       .  A
C274        C286   1.413       .  A
C274        C282   1.387       .  A
C275        C289   1.413       .  A
C275        C283   1.387       .  A
C276        C284   1.387       .  A
C276        C287   1.415       .  A
C277        C285   1.386       .  A
C277        C288   1.415       .  A
C278        C279   1.375   1_554  A
C278        H290   1.082       .  S
C279        H291   1.082       .  S
C280        C281   1.374   1_554  A
C280        H292   1.082       .  S
C281        H293   1.082       .  S
C282        C283   1.373   1_655  A
C282        H294   1.082       .  S
C283        H295   1.082       .  S
C284        C285   1.373   1_655  A
C284        H296   1.082       .  S
C285        H297   1.082       .  S
C286        C353   1.451       .  S
C287        C426   1.450       .  S
C288        C402   1.454       .  S
C289        C358   1.452       .  S
C300        C301   1.533       .  S
C300        C306   1.538       .  S
C300        C304   1.536       .  S
C300        C454   1.465       .  S
C301        H308   1.087       .  S
C301        C302   1.362       .  D
C302        C303   1.537       .  S
C302        C350   1.440       .  S
C303        C307   1.536       .  S
C303        C305   1.536       .  S
C303        H309   1.112       .  S
C304        H310   1.087       .  S
C304        C305   1.364       .  D
C305        C346   1.443       .  S
C306        H311   1.086       .  S
C306        C307   1.365       .  D
C307        C357   1.444       .  S
N312        C317   1.354   1_554  A
N312        C316   1.355       .  A
N312        H344   1.032       .  S
N313        C320   1.352       .  A
N313        C321   1.352   1_545  A
N314        C319   1.354   1_554  A
N314        C318   1.353       .  A
N314        H345   1.032       .  S
N315        C322   1.352       .  A
N315        C323   1.352   1_545  A
C316        C324   1.388       .  A
C316        C332   1.418       .  A
C317        C333   1.418       .  A
C317        C325   1.388       .  A
C318        C326   1.388       .  A
C318        C335   1.417       .  A
C319        C334   1.417       .  A
C319        C327   1.388       .  A
C320        C332   1.415       .  A
C320        C328   1.387       .  A
C321        C335   1.414       .  A
C321        C329   1.387       .  A
C322        C330   1.387       .  A
C322        C333   1.415       .  A
C323        C331   1.387       .  A
C323        C334   1.415       .  A
C324        C325   1.374   1_554  A
C324        H336   1.082       .  S
C325        H337   1.082       .  S
C326        C327   1.373   1_554  A
C326        H338   1.082       .  S
C327        H339   1.082       .  S
C328        C329   1.372   1_545  A
C328        H340   1.082       .  S
C329        H341   1.082       .  S
C330        C331   1.372   1_545  A
C330        H342   1.082       .  S
C331        H343   1.082       .  S
C332        C349   1.453       .  S
C333        C421   1.452       .  S
C334        C433   1.451       .  S
C335        C386   1.449       .  S
C346        C347   1.206       .  T
C347        C348   1.413       .  S
C348        C349   1.207       .  T
C350        C351   1.205       .  T
C351        C352   1.411       .  S
C352        C353   1.206       .  T
C354        C355   1.208       .  T
C355        C356   1.415       .  S
C356        C357   1.207       .  T
C358        C359   1.207       .  T
C359        C360   1.413       .  S
C360        C361   1.206       .  T
C362        C363   1.203       .  T
C363        C364   1.408       .  S
C364        C365   1.204       .  T
C366        C367   1.207       .  T
C367        C368   1.414       .  S
C368        C369   1.208       .  T
C370        C371   1.204       .  T
C371        C372   1.410       .  S
C372        C373   1.205       .  T
C374        C375   1.202       .  T
C375        C376   1.406       .  S
C376        C377   1.203       .  T
C378        C379   1.208       .  T
C379        C380   1.415       .  S
C380        C381   1.208       .  T
C382        C383   1.205       .  T
C383        C384   1.412       .  S
C384        C385   1.206       .  T
C386        C387   1.205       .  T
C387        C388   1.409       .  S
C388        C389   1.204       .  T
C390        C391   1.207       .  T
C391        C392   1.415       .  S
C392        C393   1.208       .  T
C394        C395   1.208       .  T
C395        C396   1.415       .  S
C396        C397   1.207       .  T
C398        C399   1.203       .  T
C399        C400   1.407       .  S
C400        C401   1.203       .  T
C402        C403   1.208       .  T
C403        C404   1.414       .  S
C404        C405   1.207       .  T
C406        C407   1.204       .  T
C407        C408   1.409       .  S
C408        C409   1.204       .  T
C410        C411   1.206       .  T
C411        C412   1.412       .  S
C412        C413   1.206       .  T
C414        C415   1.204       .  T
C415        C416   1.408       .  S
C416        C417   1.203       .  T
C418        C419   1.206       .  T
C419        C420   1.412       .  S
C420        C421   1.206       .  T
C422        C423   1.207       .  T
C423        C424   1.415       .  S
C424        C425   1.208       .  T
C426        C427   1.205       .  T
C427        C428   1.410       .  S
C428        C429   1.204       .  T
C430        C431   1.205       .  T
C431        C432   1.411       .  S
C432        C433   1.206       .  T
C434        C435   1.203       .  T
C435        C436   1.408       .  S
C436        C437   1.204       .  T
C438        C439   1.207       .  T
C439        C440   1.414       .  S
C440        C441   1.208       .  T
C442        C443   1.206       .  T
C444        C445   1.206       .  T
C446        C447   1.205       .  T
C448        C449   1.205       .  T
C450        C451   1.206       .  T
C452        C453   1.205       .  T
C454        C455   1.204       .  T
C456        C457   1.206       .  T
