geometry optimzed in LAMMPS
_audit_creation_date              2020-11-30 
_audit_creation_method            'lammps2cif' 
_symmetry_space_group_name_H-M    'P1' 
_symmetry_Int_Tables_number       1 
_symmetry_cell_setting            triclinic 
loop_ 
_symmetry_equiv_pos_as_xyz 
  x,y,z 
_cell_length_a                    35.43242900209324 
_cell_length_b                    34.411305242183026 
_cell_length_c                    32.28395322496919 
_cell_angle_alpha                 90.46265706882153 
_cell_angle_beta                  90.4753673537182 
_cell_angle_gamma                 90.62258695659034 
loop_ 
_atom_site_label 
_atom_site_type_symbol 
_atom_site_fract_x 
_atom_site_fract_y 
_atom_site_fract_z 
_atom_site_charge 
O1          O  0.42258451  0.46942540  0.02245864    -0.80720
O2          O  0.07946126  0.03983578  0.02429532    -0.80750
O3          O  0.04070753  0.45227301  0.06018017    -0.80750
O4          O  0.47560106  0.09862474  0.03451636    -0.80700
O5          O  0.08654167  0.46029237  0.01656816    -0.80820
O6          O  0.44684111  0.04242999  0.04599204    -0.80740
O7          O  0.02989433  0.04868797  0.06303071    -0.80720
O8          O  0.46889246  0.45713271  0.06234655    -0.80760
C9          C  0.43450906  0.45384000  0.05543531     1.08970
C10         C  0.06524608  0.05220945  0.05808102     1.08850
C11         C  0.07406692  0.44684791  0.05045862     1.08990
C12         C  0.44909723  0.07960813  0.05130373     1.08870
O13         O  0.40857205  0.03493420  0.47579177    -0.80720
O14         O  0.05091345  0.46358980  0.43526175    -0.80800
O15         O  0.46181597  0.42476447  0.47645604    -0.80730
O16         O  0.03607884  0.08520593  0.48465667    -0.80710
O17         O  0.04393289  0.03938051  0.44020726    -0.80770
O18         O  0.45159625  0.47841067  0.44108260    -0.80730
O19         O  0.46224015  0.06435588  0.46101802    -0.80690
O20         O  0.04020367  0.41557424  0.47662281    -0.80760
Co21       Co  0.45347618  0.01030143  0.99207497     1.51530
Co22       Co  0.06204495  0.50097331  0.47958004     1.51690
Co23       Co  0.50289721  0.44044361  0.01824964     1.51570
Co24       Co  0.49654469  0.05240987  0.51317340     1.51470
O25         O  0.50824779  0.49596085  0.99978126    -1.42660
C26         C  0.42585480  0.06118697  0.45610308     1.08900
C27         C  0.05468205  0.42832383  0.44315814     1.08990
C28         C  0.44684206  0.44217800  0.44554286     1.08920
C29         C  0.05007881  0.07366397  0.45101394     1.08900
C30         C  0.16103449  0.15813214  0.34827482    -0.03070
C31         C  0.16444098  0.33436936  0.34228518    -0.03070
C32         C  0.16247684  0.33438859  0.14978696    -0.03070
C33         C  0.16836245  0.16054950  0.15524660    -0.03070
C34         C  0.33763629  0.16612039  0.34456033    -0.03070
C35         C  0.34509441  0.16476093  0.16061641    -0.03070
C36         C  0.33656605  0.34704200  0.15446831    -0.03070
C37         C  0.34080093  0.34027822  0.34537261    -0.03230
C38         C  0.31368396  0.37378607  0.27227467    -0.02430
C39         C  0.34403276  0.35422811  0.29540844     0.07250
C40         C  0.37869781  0.35911801  0.27201632    -0.02550
C41         C  0.37818386  0.36576568  0.22710077    -0.02550
C42         C  0.34376852  0.36318439  0.20339771     0.07380
C43         C  0.31674047  0.38190890  0.22834429    -0.02740
Br44       Br  0.31189949  0.43643184  0.21612097    -0.01290
Br45       Br  0.27359605  0.40430985  0.29841813    -0.01360
Br46       Br  0.40799259  0.41144150  0.21190425    -0.01320
Br47       Br  0.42295388  0.38061841  0.30072702    -0.01310
C48         C  0.31962978  0.23496594  0.16669502    -0.02430
C49         C  0.34924762  0.21225534  0.15350285     0.07250
C50         C  0.37616839  0.23632226  0.13063535    -0.02550
C51         C  0.36914015  0.27774787  0.12397047    -0.02550
C52         C  0.34586039  0.30002954  0.15240724     0.07380
C53         C  0.32523214  0.27457132  0.17785731    -0.02740
Br54       Br  0.29761019  0.29416024  0.22257628    -0.01290
Br55       Br  0.28257090  0.22558818  0.12552946    -0.01360
Br56       Br  0.38549056  0.29784401  0.07130427    -0.01320
Br57       Br  0.42372139  0.21793048  0.10948982    -0.01310
C58         C  0.35106216  0.12289819  0.27438511    -0.02430
C59         C  0.34921835  0.16024998  0.29591792     0.07250
C60         C  0.36615497  0.18992562  0.27026986    -0.02550
C61         C  0.37776798  0.18309528  0.23013318    -0.02550
C62         C  0.35717932  0.15606043  0.20671614     0.07380
C63         C  0.34820698  0.12193389  0.22971097    -0.02740
Br64       Br  0.33610017  0.07344150  0.20141387    -0.01290
Br65       Br  0.35375331  0.07244367  0.30151594    -0.01360
Br66       Br  0.42422756  0.20783247  0.21193609    -0.01320
Br67       Br  0.35738584  0.24269209  0.26470781    -0.01310
C68         C  0.33422125  0.27363703  0.39058326    -0.02430
C69         C  0.35272481  0.29511110  0.35719047     0.07250
C70         C  0.38418747  0.27228501  0.34241419    -0.02550
C71         C  0.38539701  0.23069261  0.34877897    -0.02550
C72         C  0.35167087  0.21030554  0.36028043     0.07380
C73         C  0.33803324  0.23204835  0.39440570    -0.02740
Br74       Br  0.36473940  0.22006931  0.44558209    -0.01290
Br75       Br  0.31415391  0.29928910  0.43886369    -0.01360
Br76       Br  0.43337915  0.21369632  0.37018953    -0.01320
Br77       Br  0.42787424  0.29157530  0.31447878    -0.01310
C78         C  0.23563463  0.14035945  0.18550900    -0.02430
C79         C  0.21429440  0.14805861  0.14945431     0.07250
C80         C  0.23974324  0.13718019  0.11465275    -0.02550
C81         C  0.28112106  0.13305028  0.12085737    -0.02550
C82         C  0.30019907  0.14971356  0.15667761     0.07380
C83         C  0.27275253  0.15654130  0.18833649    -0.02740
Br84       Br  0.28047586  0.19192431  0.23197000    -0.01290
Br85       Br  0.23865639  0.08405937  0.18932836    -0.01360
Br86       Br  0.30572936  0.09093014  0.09199719    -0.01320
Br87       Br  0.22404128  0.11696300  0.06151782    -0.01310
C88         C  0.12177603  0.26392381  0.15016063    -0.02430
C89         C  0.15227624  0.28907133  0.13679205     0.07250
C90         C  0.17312299  0.26926305  0.10515455    -0.02550
C91         C  0.17982730  0.22800859  0.10781180    -0.02550
C92         C  0.15887212  0.20418322  0.13667380     0.07380
C93         C  0.12333911  0.22261538  0.14352321    -0.02740
Br94       Br  0.07931322  0.20352019  0.11368888    -0.01290
Br95       Br  0.07487170  0.27981860  0.17369385    -0.01360
Br96       Br  0.21094548  0.20849421  0.06455105    -0.01320
Br97       Br  0.18662097  0.29726197  0.05517424    -0.01310
C98         C  0.22608223  0.37505270  0.12022264    -0.02430
C99         C  0.20727189  0.34104261  0.13743536     0.07250
C100        C  0.23449866  0.31197472  0.14522076    -0.02550
C101        C  0.27170861  0.31580894  0.13051699    -0.02550
C102        C  0.29149560  0.35042997  0.13978372     0.07380
C103        C  0.26629662  0.38256517  0.12913848    -0.02740
Br104      Br  0.28100468  0.43622688  0.12341140    -0.01290
Br105      Br  0.20622034  0.40079276  0.07190557    -0.01360
Br106      Br  0.27762100  0.29945851  0.07354210    -0.01320
Br107      Br  0.22485396  0.26845776  0.17826748    -0.01310
C108        C  0.17680881  0.36993415  0.26980437    -0.02430
C109        C  0.15306011  0.34519443  0.29303398     0.07250
C110        C  0.11886388  0.34109389  0.26819001    -0.02550
C111        C  0.12050014  0.34299589  0.22230720    -0.02550
C112        C  0.15620805  0.34299019  0.20040179     0.07380
C113        C  0.18391836  0.36060948  0.22771337    -0.02740
Br114      Br  0.23257112  0.37742310  0.21525193    -0.01290
Br115      Br  0.16806155  0.42465802  0.27466344    -0.01360
Br116      Br  0.07889490  0.36948798  0.19483792    -0.01320
Br117      Br  0.07348897  0.36212923  0.29163138    -0.01310
C118        C  0.27296403  0.31666469  0.32781318    -0.02430
C119        C  0.29540706  0.34049713  0.35419279     0.07250
C120        C  0.27239589  0.36193672  0.38345760    -0.02550
C121        C  0.23118897  0.35774135  0.38343165    -0.02550
C122        C  0.21027772  0.34338231  0.34743596     0.07380
C123        C  0.23510012  0.32490385  0.31849623    -0.02740
Br124      Br  0.21819407  0.29665703  0.27115156    -0.01290
Br125      Br  0.28685078  0.26423949  0.31545185    -0.01360
Br126      Br  0.20668683  0.36405547  0.43628339    -0.01320
Br127      Br  0.29413651  0.39457289  0.42636308    -0.01310
C128        C  0.13662464  0.18421332  0.27454359    -0.02430
C129        C  0.15044372  0.15297464  0.29868347     0.07250
C130        C  0.15250635  0.11856452  0.27367687    -0.02550
C131        C  0.15712448  0.12029968  0.22873179    -0.02550
C132        C  0.15980519  0.15720311  0.20623575     0.07380
C133        C  0.14861577  0.18878927  0.23316027    -0.02740
Br134      Br  0.15618071  0.24189657  0.22672823    -0.01290
Br135      Br  0.09988275  0.22218583  0.29525332    -0.01360
Br136      Br  0.15109203  0.07056542  0.20016857    -0.01320
Br137      Br  0.12948819  0.07192557  0.29627361    -0.01310
C138        C  0.26534599  0.13418587  0.32524637    -0.02430
C139        C  0.29031169  0.15912592  0.35093152     0.07250
C140        C  0.26890861  0.16991608  0.38794495    -0.02550
C141        C  0.22782038  0.16850022  0.38989644    -0.02550
C142        C  0.20512114  0.14856969  0.35901676     0.07380
C143        C  0.22701951  0.12446542  0.33428537    -0.02740
Br144      Br  0.21291665  0.06961362  0.33136883    -0.01290
Br145      Br  0.27327197  0.10690961  0.27626365    -0.01360
Br146      Br  0.20327370  0.18505221  0.44103901    -0.01320
Br147      Br  0.29077197  0.17102958  0.44247383    -0.01310
C148        C  0.18576846  0.22685182  0.33644695    -0.02430
C149        C  0.15934279  0.20376445  0.35801874     0.07250
C150        C  0.13803119  0.22624792  0.38811806    -0.02550
C151        C  0.14275511  0.26841110  0.38945722    -0.02550
C152        C  0.16224754  0.28820199  0.35617475     0.07380
C153        C  0.19313191  0.26427263  0.34956307    -0.02740
Br154      Br  0.22942621  0.26500856  0.39497243    -0.01290
Br155      Br  0.21830064  0.20764776  0.29551745    -0.01360
Br156      Br  0.14150067  0.29160939  0.44427906    -0.01320
Br157      Br  0.10861454  0.20406057  0.43214654    -0.01310
C158        C  0.11565380  0.08265264  0.42624223    -0.02430
C159        C  0.07847178  0.09600647  0.42816873     0.07250
C160        C  0.06753296  0.12552298  0.40186852    -0.02550
C161        C  0.09204649  0.13719097  0.37026786    -0.02550
C162        C  0.13248466  0.13296525  0.37505132     0.07380
C163        C  0.14351883  0.10455118  0.40584809    -0.02740
Br164      Br  0.19350810  0.09177034  0.42666367    -0.01290
Br165      Br  0.12855480  0.03261073  0.44901933    -0.01360
Br166      Br  0.06473822  0.14107471  0.31874563    -0.01320
Br167      Br  0.01802596  0.14794845  0.40666606    -0.01310
C168        C  0.11940098  0.43214261  0.10691638    -0.02430
C169        C  0.09529011  0.41922944  0.07575406     0.07250
C170        C  0.08541290  0.37994794  0.07414126    -0.02550
C171        C  0.10806356  0.35198183  0.09345086    -0.02550
C172        C  0.13693080  0.36367727  0.12379774     0.07380
C173        C  0.13963927  0.40539121  0.13110627    -0.02740
Br174      Br  0.17199013  0.43115592  0.17055262    -0.01290
Br175      Br  0.11958816  0.48705612  0.12015925    -0.01360
Br176      Br  0.09568503  0.30101527  0.07025096    -0.01320
Br177      Br  0.03629024  0.36506361  0.05148841    -0.01310
C178        C  0.39969017  0.11302374  0.14562346    -0.02430
C179        C  0.37285163  0.14181043  0.13123352     0.07250
C180        C  0.37320446  0.14846567  0.08729069    -0.02550
C181        C  0.40143588  0.13150982  0.06257978    -0.02550
C182        C  0.42151526  0.09946078  0.07733426     0.07380
C183        C  0.41571159  0.08709101  0.11760496    -0.02740
Br184      Br  0.43413848  0.03728065  0.13649839    -0.01290
Br185      Br  0.42854474  0.11217374  0.19711968    -0.01360
Br186      Br  0.41326841  0.15297824  0.00912204    -0.01320
Br187      Br  0.33826070  0.18175309  0.05855503    -0.01310
C188        C  0.14491959  0.11747002  0.09236626    -0.02430
C189        C  0.13802673  0.13201297  0.13247539     0.07250
C190        C  0.09998823  0.12230858  0.14683464    -0.02550
C191        C  0.07586843  0.09619088  0.12333090    -0.02550
C192        C  0.08996874  0.07547670  0.08851771     0.07380
C193        C  0.12837104  0.08222370  0.07980770    -0.02740
Br194      Br  0.15828410  0.04792280  0.04672065    -0.01290
Br195      Br  0.13722018  0.15280089  0.04728768    -0.01360
Br196      Br  0.02420009  0.08844537  0.14045361    -0.01320
Br197      Br  0.07622974  0.14541963  0.19523977    -0.01310
C198        C  0.38611439  0.43344044  0.40269729    -0.02430
C199        C  0.42095602  0.41978934  0.41715190     0.07250
C200        C  0.42939072  0.38177483  0.40715809    -0.02550
C201        C  0.40062360  0.35553845  0.39591248    -0.02550
C202        C  0.36722076  0.36872718  0.37362059     0.07380
C203        C  0.36492720  0.41079732  0.37388525    -0.02740
Br204      Br  0.34763177  0.44310905  0.33002806    -0.01290
Br205      Br  0.36635780  0.48260940  0.42002784    -0.01360
Br206      Br  0.41033672  0.30818626  0.42537215    -0.01320
Br207      Br  0.48069254  0.36782589  0.39864876    -0.01310
C208        C  0.36646236  0.09523878  0.43377168    -0.02430
C209        C  0.40448612  0.08636702  0.42665147     0.07250
C210        C  0.42018119  0.09801548  0.38889308    -0.02550
C211        C  0.40108596  0.12495453  0.36294220    -0.02550
C212        C  0.36163669  0.13482102  0.37051269     0.07380
C213        C  0.34463894  0.11151925  0.40208323    -0.02740
Br214      Br  0.29912814  0.08099641  0.39347078    -0.01290
Br215      Br  0.34122451  0.08106880  0.48454221    -0.01360
Br216      Br  0.43000927  0.13814884  0.31370294    -0.01320
Br217      Br  0.46410374  0.07035884  0.36909448    -0.01310
C218        C  0.10766805  0.42208628  0.39008560    -0.02430
C219        C  0.08017171  0.40418302  0.41568351     0.07250
C220        C  0.07943163  0.36331485  0.41488454    -0.02550
C221        C  0.10001463  0.34328245  0.38431325    -0.02550
C222        C  0.13565048  0.35915160  0.36959678     0.07380
C223        C  0.13874322  0.40063072  0.37522821    -0.02740
Br224      Br  0.18433198  0.43176777  0.37015217    -0.01290
Br225      Br  0.10157208  0.47384011  0.36841937    -0.01360
Br226      Br  0.07162759  0.29886867  0.36141994    -0.01320
Br227      Br  0.05076827  0.33270918  0.45356565    -0.01310
C228        C  0.42675329  0.40062612  0.11021641    -0.02430
C229        C  0.41059497  0.42805742  0.08249718     0.07250
C230        C  0.37155748  0.42637370  0.07627298    -0.02550
C231        C  0.35056662  0.39456888  0.09081714    -0.02550
C232        C  0.36385563  0.37060279  0.12396842     0.07380
C233        C  0.40416335  0.37132328  0.12921608    -0.02740
Br234      Br  0.43129304  0.33155409  0.16011234    -0.01290
Br235      Br  0.47911702  0.40501089  0.12774019    -0.01360
Br236      Br  0.31718765  0.37661057  0.04756609    -0.01320
Br237      Br  0.34535820  0.46695190  0.04637777    -0.01310
O238        O  0.42257720  0.46943532  0.52245559    -0.80720
O239        O  0.07945695  0.03984068  0.52432373    -0.80750
O240        O  0.04069381  0.45226184  0.56019291    -0.80750
O241        O  0.47559121  0.09863587  0.53450844    -0.80700
O242        O  0.08653685  0.46029363  0.51659514    -0.80820
O243        O  0.44683831  0.04243870  0.54599008    -0.80740
O244        O  0.02987930  0.04870111  0.56304059    -0.80720
O245        O  0.46888519  0.45714377  0.56234173    -0.80760
C246        C  0.43450290  0.45384727  0.55543104     1.08970
C247        C  0.06523274  0.05222025  0.55810254     1.08850
C248        C  0.07405736  0.44684564  0.55048199     1.08990
C249        C  0.44909111  0.07961699  0.55130040     1.08870
O250        O  0.40857062  0.03491511  0.97579735    -0.80720
O251        O  0.05090341  0.46358382  0.93524336    -0.80800
O252        O  0.46182347  0.42475270  0.97646546    -0.80730
O253        O  0.03607321  0.08519745  0.98464965    -0.80710
O254        O  0.04391606  0.03937682  0.94019185    -0.80770
O255        O  0.45159879  0.47839621  0.94108740    -0.80730
O256        O  0.46223552  0.06434685  0.96102867    -0.80690
O257        O  0.04020821  0.41557402  0.97661729    -0.80760
Co258      Co  0.45347397  0.01031233  0.49207375     1.51530
Co259      Co  0.06204095  0.50096917  0.97955766     1.51690
Co260      Co  0.50288901  0.44044739  0.51824939     1.51570
Co261      Co  0.49654828  0.05239947  0.01317536     1.51470
O262        O  0.50824605  0.49596767  0.49978673    -1.42660
C263        C  0.42585121  0.06117128  0.95611207     1.08900
C264        C  0.05467941  0.42832023  0.94314755     1.08990
C265        C  0.44684919  0.44216327  0.94555129     1.08920
C266        C  0.05006531  0.07365891  0.95100188     1.08900
C267        C  0.16103433  0.15814392  0.84829933    -0.03070
C268        C  0.16446507  0.33437655  0.84230782    -0.03070
C269        C  0.16249507  0.33439640  0.64980268    -0.03070
C270        C  0.16836070  0.16054994  0.65526834    -0.03070
C271        C  0.33763309  0.16609986  0.84457517    -0.03070
C272        C  0.34509009  0.16474539  0.66063701    -0.03070
C273        C  0.33658448  0.34703599  0.65448348    -0.03070
C274        C  0.34082574  0.34025805  0.84538112    -0.03230
C275        C  0.31371216  0.37377771  0.77229021    -0.02430
C276        C  0.34405799  0.35421033  0.79541873     0.07250
C277        C  0.37872339  0.35909560  0.77202582    -0.02550
C278        C  0.37820932  0.36574965  0.72711186    -0.02550
C279        C  0.34379257  0.36317934  0.70341084     0.07380
C280        C  0.31676831  0.38190607  0.72836104    -0.02740
Br281      Br  0.31194118  0.43643297  0.71614969    -0.01290
Br282      Br  0.27363467  0.40430837  0.79844295    -0.01360
Br283      Br  0.40802631  0.41142203  0.71192245    -0.01320
Br284      Br  0.42298894  0.38057567  0.80073688    -0.01310
C285        C  0.31963457  0.23495843  0.66672268    -0.02430
C286        C  0.34924857  0.21224218  0.65352855     0.07250
C287        C  0.37617436  0.23630637  0.63066397    -0.02550
C288        C  0.36915260  0.27773307  0.62399615    -0.02550
C289        C  0.34587393  0.30002054  0.65242805     0.07380
C290        C  0.32524079  0.27456608  0.67787925    -0.02740
Br291      Br  0.29762444  0.29416301  0.72259986    -0.01290
Br292      Br  0.28255833  0.22557383  0.62557744    -0.01360
Br293      Br  0.38550996  0.29782446  0.57133037    -0.01320
Br294      Br  0.42372826  0.21790930  0.60952580    -0.01310
C295        C  0.35104860  0.12287291  0.77440082    -0.02430
C296        C  0.34921019  0.16022467  0.79593351     0.07250
C297        C  0.36615375  0.18989645  0.77028878    -0.02550
C298        C  0.37776888  0.18306591  0.73015418    -0.02550
C299        C  0.35717486  0.15603752  0.70673445     0.07380
C300        C  0.34819472  0.12191099  0.72972673    -0.02740
Br301      Br  0.33608536  0.07342113  0.70142657    -0.01290
Br302      Br  0.35373673  0.07241820  0.80153182    -0.01360
Br303      Br  0.42423256  0.20779861  0.71196536    -0.01320
Br304      Br  0.35737004  0.24265598  0.76471520    -0.01310
C305        C  0.33424809  0.27362129  0.89059649    -0.02430
C306        C  0.35274607  0.29508945  0.85719612     0.07250
C307        C  0.38419857  0.27225462  0.84240758    -0.02550
C308        C  0.38540409  0.23066372  0.84878017    -0.02550
C309        C  0.35167736  0.21028351  0.86029177     0.07380
C310        C  0.33805081  0.23203137  0.89441928    -0.02740
Br311      Br  0.36475992  0.22004731  0.94559170    -0.01290
Br312      Br  0.31420124  0.29928175  0.93888172    -0.01360
Br313      Br  0.43338648  0.21366840  0.87019235    -0.01320
Br314      Br  0.42787851  0.29152591  0.81444462    -0.01310
C315        C  0.23562855  0.14034514  0.68552960    -0.02430
C316        C  0.21429028  0.14804914  0.64947521     0.07250
C317        C  0.23973786  0.13716516  0.61467376    -0.02550
C318        C  0.28111586  0.13303457  0.62087785    -0.02550
C319        C  0.30019438  0.14969730  0.65669802     0.07380
C320        C  0.27274844  0.15652164  0.68835861    -0.02740
Br321      Br  0.28047025  0.19190712  0.73198840    -0.01290
Br322      Br  0.23863867  0.08404455  0.68935010    -0.01360
Br323      Br  0.30572695  0.09091945  0.59201130    -0.01320
Br324      Br  0.22403332  0.11693714  0.56154261    -0.01310
C325        C  0.12178914  0.26393521  0.65016514    -0.02430
C326        C  0.15229622  0.28907749  0.63680569     0.07250
C327        C  0.17314950  0.26926318  0.60517566    -0.02550
C328        C  0.17984370  0.22800614  0.60783483    -0.02550
C329        C  0.15887859  0.20418552  0.63669188     0.07380
C330        C  0.12334728  0.22262532  0.64353161    -0.02740
Br331      Br  0.07932686  0.20353941  0.61368131    -0.01290
Br332      Br  0.07488086  0.27984472  0.67367458    -0.01360
Br333      Br  0.21094715  0.20847552  0.56456898    -0.01320
Br334      Br  0.18667219  0.29725885  0.55519978    -0.01310
C335        C  0.22610319  0.37506161  0.62024523    -0.02430
C336        C  0.20728992  0.34105195  0.63745373     0.07250
C337        C  0.23451324  0.31198154  0.64523867    -0.02550
C338        C  0.27172506  0.31581077  0.63054053    -0.02550
C339        C  0.29151406  0.35042957  0.63980509     0.07380
C340        C  0.26631871  0.38256824  0.62916107    -0.02740
Br341      Br  0.28103302  0.43622945  0.62344659    -0.01290
Br342      Br  0.20623139  0.40082752  0.57194963    -0.01360
Br343      Br  0.27766479  0.29943482  0.57357794    -0.01320
Br344      Br  0.22486263  0.26847636  0.67829782    -0.01310
C345        C  0.17683667  0.36993711  0.76982370    -0.02430
C346        C  0.15308455  0.34520285  0.79305594     0.07250
C347        C  0.11888763  0.34110670  0.76821337    -0.02550
C348        C  0.12052167  0.34300466  0.72232965    -0.02550
C349        C  0.15622869  0.34299689  0.70042022     0.07380
C350        C  0.18394153  0.36061551  0.72773087    -0.02740
Br351      Br  0.23259329  0.37743734  0.71527007    -0.01290
Br352      Br  0.16813151  0.42466624  0.77470504    -0.01360
Br353      Br  0.07891574  0.36950010  0.69486593    -0.01320
Br354      Br  0.07352045  0.36215764  0.79165856    -0.01310
C355        C  0.27298365  0.31665845  0.82783007    -0.02430
C356        C  0.29543226  0.34048512  0.85420813     0.07250
C357        C  0.27242569  0.36192771  0.88347635    -0.02550
C358        C  0.23121736  0.35774283  0.88345102    -0.02550
C359        C  0.21030244  0.34338709  0.84745665     0.07380
C360        C  0.23512094  0.32490476  0.81851566    -0.02740
Br361      Br  0.21820737  0.29665688  0.77117559    -0.01290
Br362      Br  0.28685813  0.26422897  0.81547734    -0.01360
Br363      Br  0.20671836  0.36405648  0.93630467    -0.01320
Br364      Br  0.29417214  0.39455423  0.92638677    -0.01310
C365        C  0.13663138  0.18422949  0.77456664    -0.02430
C366        C  0.15044324  0.15298828  0.79870759     0.07250
C367        C  0.15249668  0.11857644  0.77370240    -0.02550
C368        C  0.15711318  0.12030811  0.72875681    -0.02550
C369        C  0.15980244  0.15720913  0.70625820     0.07380
C370        C  0.14862025  0.18879947  0.73318124    -0.02740
Br371      Br  0.15618507  0.24190512  0.72673872    -0.01290
Br372      Br  0.09990112  0.22221292  0.79527795    -0.01360
Br373      Br  0.15106701  0.07057494  0.70019607    -0.01320
Br374      Br  0.12946969  0.07194410  0.79630314    -0.01310
C375        C  0.26533779  0.13417520  0.82526798    -0.02430
C376        C  0.29030873  0.15911291  0.85095003     0.07250
C377        C  0.26891085  0.16990836  0.88796483    -0.02550
C378        C  0.22782288  0.16849888  0.88992027    -0.02550
C379        C  0.20511841  0.14857148  0.85904258     0.07380
C380        C  0.22701056  0.12446212  0.83431104    -0.02740
Br381      Br  0.21289785  0.06961282  0.83140408    -0.01290
Br382      Br  0.27325697  0.10689135  0.77628751    -0.01360
Br383      Br  0.20328358  0.18505786  0.94106444    -0.01320
Br384      Br  0.29078078  0.17102308  0.94249064    -0.01310
C385        C  0.18578296  0.22685790  0.83647628    -0.02430
C386        C  0.15935182  0.20377543  0.85804578     0.07250
C387        C  0.13804454  0.22626127  0.88814621    -0.02550
C388        C  0.14277485  0.26842346  0.88948493    -0.02550
C389        C  0.16226975  0.28821039  0.85620121     0.07380
C390        C  0.19315216  0.26427780  0.84959247    -0.02740
Br391      Br  0.22944609  0.26501279  0.89500330    -0.01290
Br392      Br  0.21830590  0.20764859  0.79554133    -0.01360
Br393      Br  0.14152341  0.29162294  0.94430616    -0.01320
Br394      Br  0.10862696  0.20407682  0.93217615    -0.01310
C395        C  0.11563805  0.08264074  0.92622299    -0.02430
C396        C  0.07845937  0.09600169  0.92816086     0.07250
C397        C  0.06752767  0.12554160  0.90188728    -0.02550
C398        C  0.09204175  0.13721835  0.87029118    -0.02550
C399        C  0.13247911  0.13298180  0.87507181     0.07380
C400        C  0.14350723  0.10455414  0.90585583    -0.02740
Br401      Br  0.19348799  0.09178081  0.92670006    -0.01290
Br402      Br  0.12853025  0.03257275  0.94893998    -0.01360
Br403      Br  0.06473182  0.14111706  0.81877215    -0.01320
Br404      Br  0.01802580  0.14797582  0.90670136    -0.01310
C405        C  0.11936951  0.43214542  0.60696898    -0.02430
C406        C  0.09528279  0.41923132  0.57578378     0.07250
C407        C  0.08542818  0.37994519  0.57415078    -0.02550
C408        C  0.10808780  0.35198429  0.59345657    -0.02550
C409        C  0.13694528  0.36368334  0.62381355     0.07380
C410        C  0.13963371  0.40539659  0.63113738    -0.02740
Br411      Br  0.17199180  0.43116495  0.67057520    -0.01290
Br412      Br  0.11946735  0.48704266  0.62028841    -0.01360
Br413      Br  0.09573978  0.30102128  0.57022872    -0.01320
Br414      Br  0.03631329  0.36504567  0.55148975    -0.01310
C415        C  0.39968575  0.11300931  0.64563318    -0.02430
C416        C  0.37284538  0.14179776  0.63125008     0.07250
C417        C  0.37319569  0.14846196  0.58730883    -0.02550
C418        C  0.40142714  0.13151393  0.56259202    -0.02550
C419        C  0.42151179  0.09946512  0.57733855     0.07380
C420        C  0.41571247  0.08708658  0.61760746    -0.02740
Br421      Br  0.43415085  0.03727557  0.63648859    -0.01290
Br422      Br  0.42852907  0.11213835  0.69713699    -0.01360
Br423      Br  0.41325225  0.15299407  0.50913719    -0.01320
Br424      Br  0.33824783  0.18175394  0.55858428    -0.01310
C425        C  0.14492145  0.11744910  0.59240310    -0.02430
C426        C  0.13802120  0.13201526  0.63250064     0.07250
C427        C  0.09997312  0.12233581  0.64684809    -0.02550
C428        C  0.07584305  0.09623489  0.62333401    -0.02550
C429        C  0.08995019  0.07548757  0.58854547     0.07380
C430        C  0.12836301  0.08220096  0.57986355    -0.02740
Br431      Br  0.15828115  0.04784150  0.54685144    -0.01290
Br432      Br  0.13722283  0.15276417  0.54730939    -0.01360
Br433      Br  0.02414661  0.08857764  0.64039563    -0.01320
Br434      Br  0.07622155  0.14545521  0.69525212    -0.01310
C435        C  0.38612281  0.43341321  0.90271512    -0.02430
C436        C  0.42096873  0.41977021  0.91716296     0.07250
C437        C  0.42941420  0.38175940  0.90716463    -0.02550
C438        C  0.40065371  0.35551699  0.89591458    -0.02550
C439        C  0.36724775  0.36870373  0.87362585     0.07380
C440        C  0.36494770  0.41077278  0.87389347    -0.02740
Br441      Br  0.34769855  0.44308927  0.83001729    -0.01290
Br442      Br  0.36634479  0.48256697  0.92006315    -0.01360
Br443      Br  0.41039252  0.30815134  0.92534109    -0.01320
Br444      Br  0.48072049  0.36782902  0.89864815    -0.01310
C445        C  0.36645757  0.09521554  0.93378157    -0.02430
C446        C  0.40448195  0.08634838  0.92666138     0.07250
C447        C  0.42017910  0.09800001  0.88890555    -0.02550
C448        C  0.40108052  0.12493325  0.86295222    -0.02550
C449        C  0.36163131  0.13479851  0.87052436     0.07380
C450        C  0.34463353  0.11149731  0.90209530    -0.02740
Br451      Br  0.29911508  0.08098432  0.89349202    -0.01290
Br452      Br  0.34122290  0.08104519  0.98455390    -0.01360
Br453      Br  0.43000014  0.13812030  0.81370804    -0.01320
Br454      Br  0.46411897  0.07036375  0.86911880    -0.01310
C455        C  0.10766976  0.42208384  0.89008309    -0.02430
C456        C  0.08017530  0.40418030  0.91568179     0.07250
C457        C  0.07944715  0.36331243  0.91489590    -0.02550
C458        C  0.10003602  0.34328157  0.88432960    -0.02550
C459        C  0.13567216  0.35915504  0.86961849     0.07380
C460        C  0.13875606  0.40063451  0.87524626    -0.02740
Br461      Br  0.18434186  0.43177969  0.87020485    -0.01290
Br462      Br  0.10154271  0.47381139  0.86836206    -0.01360
Br463      Br  0.07164995  0.29887273  0.86142622    -0.01320
Br464      Br  0.05078672  0.33270568  0.95357852    -0.01310
C465        C  0.42675973  0.40063059  0.61021361    -0.02430
C466        C  0.41059478  0.42805811  0.58249344     0.07250
C467        C  0.37155774  0.42636598  0.57627180    -0.02550
C468        C  0.35057320  0.39455871  0.59082182    -0.02550
C469        C  0.36386846  0.37059662  0.62397514     0.07380
C470        C  0.40417621  0.37132459  0.62921777    -0.02740
Br471      Br  0.43131454  0.33155593  0.66010576    -0.01290
Br472      Br  0.47912552  0.40502105  0.62772901    -0.01360
Br473      Br  0.31718332  0.37660102  0.54758014    -0.01320
Br474      Br  0.34535079  0.46693767  0.54637369    -0.01310
O475        O  0.42258398  0.96942593  0.02245865    -0.80720
O476        O  0.07946140  0.53983595  0.02429230    -0.80750
O477        O  0.04070641  0.95227143  0.06018079    -0.80750
O478        O  0.47560162  0.59862416  0.03451750    -0.80700
O479        O  0.08654105  0.96029184  0.01656968    -0.80820
O480        O  0.44684153  0.54242932  0.04599276    -0.80740
O481        O  0.02989568  0.54868728  0.06302964    -0.80720
O482        O  0.46889184  0.95713267  0.06234636    -0.80760
C483        C  0.43450849  0.95383995  0.05543511     1.08970
C484        C  0.06524727  0.55220872  0.05807885     1.08850
C485        C  0.07406582  0.94684651  0.05045945     1.08990
C486        C  0.44909803  0.57960737  0.05130513     1.08870
O487        O  0.40857133  0.53493331  0.47579286    -0.80720
O488        O  0.05091417  0.96359041  0.43526322    -0.80800
O489        O  0.46181511  0.92476456  0.47645555    -0.80730
O490        O  0.03607782  0.58520566  0.48465496    -0.80710
O491        O  0.04393052  0.53937999  0.44020541    -0.80770
O492        O  0.45159627  0.97841075  0.44108212    -0.80730
O493        O  0.46223893  0.56435594  0.46101905    -0.80690
O494        O  0.04020302  0.91557384  0.47662260    -0.80760
Co495      Co  0.45347618  0.51030112  0.99207525     1.51530
Co496      Co  0.06204552  0.00097323  0.47958217     1.51690
Co497      Co  0.50289647  0.94044329  0.01824962     1.51570
Co498      Co  0.49654467  0.55240977  0.51317334     1.51470
O499        O  0.50824778  0.99596094  0.99978191    -1.42660
C500        C  0.42585360  0.56118658  0.45610450     1.08900
C501        C  0.05468203  0.92832413  0.44315848     1.08990
C502        C  0.44684132  0.94217817  0.44554238     1.08920
C503        C  0.05007666  0.57366354  0.45101168     1.08900
C504        C  0.16103225  0.65813195  0.34827327    -0.03070
C505        C  0.16443749  0.83436833  0.34228109    -0.03070
C506        C  0.16247868  0.83438584  0.14978188    -0.03070
C507        C  0.16836429  0.66054739  0.15524559    -0.03070
C508        C  0.33763441  0.66612072  0.34456338    -0.03070
C509        C  0.34509635  0.66475864  0.16062016    -0.03070
C510        C  0.33656743  0.84703980  0.15446891    -0.03070
C511        C  0.34079743  0.84027866  0.34537387    -0.03230
C512        C  0.31368209  0.87378526  0.27227424    -0.02430
C513        C  0.34403045  0.85422786  0.29540941     0.07250
C514        C  0.37869606  0.85911757  0.27201814    -0.02550
C515        C  0.37818324  0.86576467  0.22710242    -0.02550
C516        C  0.34376857  0.86318299  0.20339827     0.07380
C517        C  0.31673969  0.88190747  0.22834379    -0.02740
Br518      Br  0.31189786  0.93643001  0.21611917    -0.01290
Br519      Br  0.27359250  0.90430858  0.29841545    -0.01360
Br520      Br  0.40799174  0.91144068  0.21190604    -0.01320
Br521      Br  0.42295110  0.88061905  0.30072971    -0.01310
C522        C  0.31963218  0.73496379  0.16669889    -0.02430
C523        C  0.34924966  0.71225302  0.15350629     0.07250
C524        C  0.37617080  0.73631966  0.13063906    -0.02550
C525        C  0.36914286  0.77774525  0.12397361    -0.02550
C526        C  0.34586246  0.80002734  0.15240939     0.07380
C527        C  0.32523413  0.77456944  0.17785989    -0.02740
Br528      Br  0.29761026  0.79415858  0.22257703    -0.01290
Br529      Br  0.28257178  0.72558471  0.12553592    -0.01360
Br530      Br  0.38549493  0.79784081  0.07130778    -0.01320
Br531      Br  0.42372403  0.71792728  0.10949471    -0.01310
C532        C  0.35106351  0.62289779  0.27438937    -0.02430
C533        C  0.34921788  0.66025002  0.29592139     0.07250
C534        C  0.36615430  0.68992573  0.27027309    -0.02550
C535        C  0.37776863  0.68309457  0.23013699    -0.02550
C536        C  0.35718135  0.65605869  0.20671995     0.07380
C537        C  0.34820906  0.62193254  0.22971523    -0.02740
Br538      Br  0.33610302  0.57343956  0.20141881    -0.01290
Br539      Br  0.35375659  0.57244353  0.30152070    -0.01360
Br540      Br  0.42422913  0.70783063  0.21194130    -0.01320
Br541      Br  0.35738731  0.74269285  0.26471165    -0.01310
C542        C  0.33421571  0.77363763  0.39058497    -0.02430
C543        C  0.35272091  0.79511163  0.35719312     0.07250
C544        C  0.38418485  0.77228587  0.34241962    -0.02550
C545        C  0.38539446  0.73069346  0.34878464    -0.02550
C546        C  0.35166780  0.71030613  0.36028396     0.07380
C547        C  0.33802801  0.73204903  0.39440819    -0.02740
Br548      Br  0.36473174  0.72007111  0.44558659    -0.01290
Br549      Br  0.31414558  0.79928991  0.43886400    -0.01360
Br550      Br  0.43337531  0.71369865  0.37020037    -0.01320
Br551      Br  0.42787312  0.79157684  0.31448763    -0.01310
C552        C  0.23563593  0.64035732  0.18551134    -0.02430
C553        C  0.21429649  0.64805581  0.14945567     0.07250
C554        C  0.23974616  0.63717634  0.11465532    -0.02550
C555        C  0.28112383  0.63304652  0.12086106    -0.02550
C556        C  0.30020117  0.64971054  0.15668130     0.07380
C557        C  0.27275408  0.65653861  0.18833962    -0.02740
Br558      Br  0.28047749  0.69192110  0.23197360    -0.01290
Br559      Br  0.23865808  0.58405739  0.18933234    -0.01360
Br560      Br  0.30573275  0.59092568  0.09200254    -0.01320
Br561      Br  0.22404514  0.61695773  0.06152095    -0.01310
C562        C  0.12177712  0.76392180  0.15015225    -0.02430
C563        C  0.15227845  0.78906870  0.13678599     0.07250
C564        C  0.17312737  0.76925966  0.10515076    -0.02550
C565        C  0.17983168  0.72800536  0.10780984    -0.02550
C566        C  0.15887475  0.70418072  0.13667106     0.07380
C567        C  0.12334104  0.72261302  0.14351715    -0.02740
Br568      Br  0.07931560  0.70351492  0.11368400    -0.01290
Br569      Br  0.07487042  0.77981902  0.17367793    -0.01360
Br570      Br  0.21095249  0.70848993  0.06455166    -0.01320
Br571      Br  0.18662854  0.79725720  0.05517054    -0.01310
C572        C  0.22608462  0.87504892  0.12021863    -0.02430
C573        C  0.20727393  0.84103958  0.13743200     0.07250
C574        C  0.23450024  0.81197184  0.14521951    -0.02550
C575        C  0.27171083  0.81580556  0.13051745    -0.02550
C576        C  0.29149732  0.85042703  0.13978333     0.07380
C577        C  0.26629855  0.88256184  0.12913605    -0.02740
Br578      Br  0.28100617  0.93622357  0.12340840    -0.01290
Br579      Br  0.20622276  0.90078869  0.07190125    -0.01360
Br580      Br  0.27762699  0.79945182  0.07354408    -0.01320
Br581      Br  0.22485343  0.76845656  0.17826813    -0.01310
C582        C  0.17680568  0.86993272  0.26979981    -0.02430
C583        C  0.15305747  0.84519207  0.29302914     0.07250
C584        C  0.11886233  0.84108848  0.26818367    -0.02550
C585        C  0.12049976  0.84299149  0.22230093    -0.02550
C586        C  0.15620824  0.84298709  0.20039666     0.07380
C587        C  0.18391723  0.86060711  0.22770931    -0.02740
Br588      Br  0.23257069  0.87741947  0.21524965    -0.01290
Br589      Br  0.16804988  0.92465551  0.27465330    -0.01360
Br590      Br  0.07889591  0.86948609  0.19483200    -0.01320
Br591      Br  0.07348404  0.86211667  0.29162377    -0.01310
C592        C  0.27296109  0.81666430  0.32781241    -0.02430
C593        C  0.29540334  0.84049743  0.35419227     0.07250
C594        C  0.27239141  0.86193749  0.38345584    -0.02550
C595        C  0.23118452  0.85774175  0.38342891    -0.02550
C596        C  0.21027412  0.84338173  0.34743297     0.07380
C597        C  0.23509728  0.82490306  0.31849428    -0.02740
Br598      Br  0.21819208  0.79665555  0.27114989    -0.01290
Br599      Br  0.28684872  0.76423907  0.31545143    -0.01360
Br600      Br  0.20668106  0.86405869  0.43627949    -0.01320
Br601      Br  0.29413125  0.89457493  0.42636074    -0.01310
C602        C  0.13662311  0.68421275  0.27454147    -0.02430
C603        C  0.15044189  0.65297422  0.29868187     0.07250
C604        C  0.15250507  0.61856397  0.27367572    -0.02550
C605        C  0.15712470  0.62029876  0.22873092    -0.02550
C606        C  0.15980557  0.65720202  0.20623449     0.07380
C607        C  0.14861496  0.68878850  0.23315821    -0.02740
Br608      Br  0.15617647  0.74189634  0.22672404    -0.01290
Br609      Br  0.09988087  0.72218529  0.29525080    -0.01360
Br610      Br  0.15109378  0.57056392  0.20016837    -0.01320
Br611      Br  0.12948536  0.57192552  0.29627193    -0.01310
C612        C  0.26534465  0.63418519  0.32524757    -0.02430
C613        C  0.29030969  0.65912556  0.35093325     0.07250
C614        C  0.26890575  0.66991584  0.38794594    -0.02550
C615        C  0.22781749  0.66850041  0.38989615    -0.02550
C616        C  0.20511886  0.64856990  0.35901591     0.07380
C617        C  0.22701762  0.62446537  0.33428524    -0.02740
Br618      Br  0.21291337  0.56961389  0.33136851    -0.01290
Br619      Br  0.27327422  0.60690510  0.27626793    -0.01360
Br620      Br  0.20326993  0.68505266  0.44103810    -0.01320
Br621      Br  0.29076762  0.67102706  0.44247560    -0.01310
C622        C  0.18576592  0.72685128  0.33644490    -0.02430
C623        C  0.15934022  0.70376410  0.35801681     0.07250
C624        C  0.13802833  0.72624769  0.38811579    -0.02550
C625        C  0.14275217  0.76841084  0.38945444    -0.02550
C626        C  0.16224433  0.78820130  0.35617161     0.07380
C627        C  0.19312898  0.76427213  0.34956076    -0.02740
Br628      Br  0.22942257  0.76500852  0.39497071    -0.01290
Br629      Br  0.21829837  0.70764711  0.29551553    -0.01360
Br630      Br  0.14149892  0.79160945  0.44427615    -0.01320
Br631      Br  0.10861172  0.70406084  0.43214462    -0.01310
C632        C  0.11565110  0.58265117  0.42623832    -0.02430
C633        C  0.07846939  0.59600565  0.42816590     0.07250
C634        C  0.06753080  0.62552318  0.40186688    -0.02550
C635        C  0.09204418  0.63719128  0.37026616    -0.02550
C636        C  0.13248230  0.63296517  0.37504949     0.07380
C637        C  0.14351628  0.60455054  0.40584565    -0.02740
Br638      Br  0.19350502  0.59177060  0.42666334    -0.01290
Br639      Br  0.12855155  0.53260743  0.44901107    -0.01360
Br640      Br  0.06473575  0.64107487  0.31874407    -0.01320
Br641      Br  0.01802455  0.64795000  0.40666584    -0.01310
C642        C  0.11939964  0.93214056  0.10691682    -0.02430
C643        C  0.09528906  0.91922780  0.07575423     0.07250
C644        C  0.08541365  0.87994599  0.07413915    -0.02550
C645        C  0.10806651  0.85197998  0.09344548    -0.02550
C646        C  0.13693343  0.86367507  0.12379276     0.07380
C647        C  0.13964117  0.90538892  0.13110297    -0.02740
Br648      Br  0.17199620  0.93115397  0.17054491    -0.01290
Br649      Br  0.11957991  0.98705271  0.12016694    -0.01360
Br650      Br  0.09569292  0.80101485  0.07023878    -0.01320
Br651      Br  0.03629006  0.86506075  0.05148985    -0.01310
C652        C  0.39969229  0.61302202  0.14562639    -0.02430
C653        C  0.37285338  0.64180848  0.13123698     0.07250
C654        C  0.37320545  0.64846397  0.08729416    -0.02550
C655        C  0.40143656  0.63150855  0.06258257    -0.02550
C656        C  0.42151659  0.59945975  0.07733656     0.07380
C657        C  0.41571380  0.58708979  0.11760739    -0.02740
Br658      Br  0.43414072  0.53727919  0.13649989    -0.01290
Br659      Br  0.42854645  0.61217155  0.19712287    -0.01360
Br660      Br  0.41326754  0.65297716  0.00912443    -0.01320
Br661      Br  0.33826083  0.68175110  0.05855936    -0.01310
C662        C  0.14492129  0.61746923  0.09236390    -0.02430
C663        C  0.13802880  0.63201082  0.13247382     0.07250
C664        C  0.09999078  0.62230504  0.14683371    -0.02550
C665        C  0.07587159  0.59618617  0.12333089    -0.02550
C666        C  0.08997085  0.57547504  0.08851531     0.07380
C667        C  0.12837244  0.58222380  0.07980313    -0.02740
Br668      Br  0.15828389  0.54792732  0.04670895    -0.01290
Br669      Br  0.13722631  0.65280111  0.04728540    -0.01360
Br670      Br  0.02420591  0.58843275  0.14045948    -0.01320
Br671      Br  0.07623098  0.64541727  0.19523749    -0.01310
C672        C  0.38611343  0.93344195  0.40269615    -0.02430
C673        C  0.42095438  0.91978974  0.41715172     0.07250
C674        C  0.42938702  0.88177419  0.40716002    -0.02550
C675        C  0.40061863  0.85553888  0.39591552    -0.02550
C676        C  0.36721680  0.86872803  0.37362231     0.07380
C677        C  0.36492468  0.91079835  0.37388564    -0.02740
Br678      Br  0.34762521  0.94310920  0.33002979    -0.01290
Br679      Br  0.36635957  0.98261296  0.42002405    -0.01360
Br680      Br  0.41032698  0.80818886  0.42538094    -0.01320
Br681      Br  0.48068810  0.86782076  0.39865446    -0.01310
C682        C  0.36646066  0.59523797  0.43377391    -0.02430
C683        C  0.40448453  0.58636685  0.42665363     0.07250
C684        C  0.42017979  0.59801673  0.38889592    -0.02550
C685        C  0.40108475  0.62495680  0.36294625    -0.02550
C686        C  0.36163502  0.63482198  0.37051620     0.07380
C687        C  0.34463723  0.61151899  0.40208580    -0.02740
Br688      Br  0.29912638  0.58099628  0.39347261    -0.01290
Br689      Br  0.34122293  0.58106676  0.48454412    -0.01360
Br690      Br  0.43000936  0.63815428  0.31370881    -0.01320
Br691      Br  0.46410202  0.57036034  0.36909602    -0.01310
C692        C  0.10766659  0.92208669  0.39008350    -0.02430
C693        C  0.08017085  0.90418346  0.41568247     0.07250
C694        C  0.07943007  0.86331532  0.41488300    -0.02550
C695        C  0.10001145  0.84328248  0.38431067    -0.02550
C696        C  0.13564670  0.85915128  0.36959190     0.07380
C697        C  0.13874019  0.90063045  0.37522280    -0.02740
Br698      Br  0.18432911  0.93176645  0.37014031    -0.01290
Br699      Br  0.10157404  0.97384389  0.36842459    -0.01360
Br700      Br  0.07162347  0.79886720  0.36142169    -0.01320
Br701      Br  0.05076930  0.83270997  0.45356672    -0.01310
C702        C  0.42675356  0.90062642  0.11021715    -0.02430
C703        C  0.41059473  0.92805648  0.08249666     0.07250
C704        C  0.37155748  0.92637044  0.07627103    -0.02550
C705        C  0.35056770  0.89456505  0.09081581    -0.02550
C706        C  0.36385683  0.87060073  0.12396864     0.07380
C707        C  0.40416438  0.87132304  0.12921711    -0.02740
Br708      Br  0.43129477  0.83155498  0.16011423    -0.01290
Br709      Br  0.47911698  0.90501315  0.12774171    -0.01360
Br710      Br  0.31719005  0.87660418  0.04756466    -0.01320
Br711      Br  0.34535703  0.96694590  0.04637265    -0.01310
O712        O  0.42257673  0.96943567  0.52245544    -0.80720
O713        O  0.07945702  0.53984115  0.52432044    -0.80750
O714        O  0.04069256  0.95225987  0.56019349    -0.80750
O715        O  0.47559164  0.59863564  0.53450919    -0.80700
O716        O  0.08653622  0.96029275  0.51659681    -0.80820
O717        O  0.44683862  0.54243841  0.54599062    -0.80740
O718        O  0.02988065  0.54870087  0.56303935    -0.80720
O719        O  0.46888464  0.95714358  0.56234135    -0.80760
C720        C  0.43450240  0.95384717  0.55543074     1.08970
C721        C  0.06523395  0.55221982  0.55810014     1.08850
C722        C  0.07405617  0.94684391  0.55048295     1.08990
C723        C  0.44909178  0.57961663  0.55130148     1.08870
O724        O  0.40856996  0.53491413  0.97579865    -0.80720
O725        O  0.05090412  0.96358446  0.93524476    -0.80800
O726        O  0.46182264  0.92475285  0.97646529    -0.80730
O727        O  0.03607232  0.58519697  0.98464820    -0.80710
O728        O  0.04391388  0.53937614  0.94019021    -0.80770
O729        O  0.45159874  0.97839626  0.94108709    -0.80730
O730        O  0.46223436  0.56434683  0.96102995    -0.80690
O731        O  0.04020761  0.91557381  0.97661727    -0.80760
Co732      Co  0.45347389  0.51031217  0.49207403     1.51530
Co733      Co  0.06204143  0.00096932  0.97955961     1.51690
Co734      Co  0.50288826  0.94044686  0.51824916     1.51570
Co735      Co  0.49654835  0.55239909  0.01317547     1.51470
O736        O  0.50824610  0.99596755  0.49978731    -1.42660
C737        C  0.42585007  0.56117084  0.95611376     1.08900
C738        C  0.05467943  0.92832059  0.94314802     1.08990
C739        C  0.44684843  0.94216343  0.94555114     1.08920
C740        C  0.05006335  0.57365830  0.95099990     1.08900
C741        C  0.16103256  0.65814345  0.84829826    -0.03070
C742        C  0.16446211  0.83437537  0.84230466    -0.03070
C743        C  0.16249678  0.83439376  0.64979847    -0.03070
C744        C  0.16836277  0.66054771  0.65526747    -0.03070
C745        C  0.33763143  0.66609977  0.84457797    -0.03070
C746        C  0.34509204  0.66474348  0.66064059    -0.03070
C747        C  0.33658575  0.84703444  0.65448431    -0.03070
C748        C  0.34082289  0.84025836  0.84538216    -0.03230
C749        C  0.31371050  0.87377727  0.77229008    -0.02430
C750        C  0.34405604  0.85421040  0.79541966     0.07250
C751        C  0.37872190  0.85909580  0.77202752    -0.02550
C752        C  0.37820876  0.86574950  0.72711347    -0.02550
C753        C  0.34379260  0.86317869  0.70341155     0.07380
C754        C  0.31676753  0.88190525  0.72836089    -0.02740
Br755      Br  0.31193937  0.93643183  0.71614862    -0.01290
Br756      Br  0.27363146  0.90430722  0.79844106    -0.01360
Br757      Br  0.40802536  0.91142222  0.71192435    -0.01320
Br758      Br  0.42298672  0.88057640  0.80073937    -0.01310
C759        C  0.31963692  0.73495684  0.66672664    -0.02430
C760        C  0.34925064  0.71224039  0.65353224     0.07250
C761        C  0.37617681  0.73630439  0.63066803    -0.02550
C762        C  0.36915530  0.77773108  0.62399960    -0.02550
C763        C  0.34587590  0.80001897  0.65243042     0.07380
C764        C  0.32524262  0.77456483  0.67788197    -0.02740
Br765      Br  0.29762444  0.79416221  0.72260091    -0.01290
Br766      Br  0.28255938  0.72557092  0.62558376    -0.01360
Br767      Br  0.38551435  0.79782188  0.57133419    -0.01320
Br768      Br  0.42373099  0.71790679  0.60953107    -0.01310
C769        C  0.35104910  0.62287190  0.77440468    -0.02430
C770        C  0.34920949  0.66022400  0.79593671     0.07250
C771        C  0.36615329  0.68989564  0.77029205    -0.02550
C772        C  0.37776979  0.68306452  0.73015808    -0.02550
C773        C  0.35717671  0.65603564  0.70673808     0.07380
C774        C  0.34819632  0.62190934  0.72973054    -0.02740
Br775      Br  0.33608804  0.57341904  0.70143073    -0.01290
Br776      Br  0.35373768  0.57241747  0.80153636    -0.01360
Br777      Br  0.42423405  0.70779688  0.71197083    -0.01320
Br778      Br  0.35736939  0.74265502  0.76471782    -0.01310
C779        C  0.33424439  0.77362176  0.89059798    -0.02430
C780        C  0.35274302  0.79508980  0.85719788     0.07250
C781        C  0.38419600  0.77225507  0.84241049    -0.02550
C782        C  0.38540178  0.73066424  0.84878368    -0.02550
C783        C  0.35167494  0.71028378  0.86029451     0.07380
C784        C  0.33804736  0.73203187  0.89442140    -0.02740
Br785      Br  0.36475508  0.72004840  0.94559497    -0.01290
Br786      Br  0.31419607  0.79928257  0.93888232    -0.01360
Br787      Br  0.43338367  0.71367020  0.87019852    -0.01320
Br788      Br  0.42787620  0.79152651  0.81444818    -0.01310
C789        C  0.23563009  0.64034230  0.68553135    -0.02430
C790        C  0.21429252  0.64804621  0.64947626     0.07250
C791        C  0.23974086  0.63716175  0.61467577    -0.02550
C792        C  0.28111877  0.63303141  0.62088081    -0.02550
C793        C  0.30019656  0.64969460  0.65670120     0.07380
C794        C  0.27275000  0.65651874  0.68836126    -0.02740
Br795      Br  0.28047096  0.69190444  0.73199093    -0.01290
Br796      Br  0.23864109  0.58404173  0.68935235    -0.01360
Br797      Br  0.30573053  0.59091585  0.59201557    -0.01320
Br798      Br  0.22403715  0.61693255  0.56154511    -0.01310
C799        C  0.12179041  0.76393307  0.65015782    -0.02430
C800        C  0.15229843  0.78907491  0.63680053     0.07250
C801        C  0.17315375  0.76926002  0.60517255    -0.02550
C802        C  0.17984810  0.72800312  0.60783333    -0.02550
C803        C  0.15888138  0.70418300  0.63668954     0.07380
C804        C  0.12334941  0.72262287  0.64352636    -0.02740
Br805      Br  0.07932912  0.70353390  0.61367795    -0.01290
Br806      Br  0.07488002  0.77984460  0.67366063    -0.01360
Br807      Br  0.21095416  0.70847186  0.56456982    -0.01320
Br808      Br  0.18667936  0.79725457  0.55519682    -0.01310
C809        C  0.22610526  0.87505844  0.62024204    -0.02430
C810        C  0.20729178  0.84104933  0.63745100     0.07250
C811        C  0.23451479  0.81197912  0.64523766    -0.02550
C812        C  0.27172719  0.81580803  0.63054112    -0.02550
C813        C  0.29151563  0.85042726  0.63980499     0.07380
C814        C  0.26632038  0.88256554  0.62915925    -0.02740
Br815      Br  0.28103429  0.93622678  0.62344430    -0.01290
Br816      Br  0.20623326  0.90082435  0.57194645    -0.01360
Br817      Br  0.27767067  0.79942892  0.57358001    -0.01320
Br818      Br  0.22486244  0.76847559  0.67829866    -0.01310
C819        C  0.17683398  0.86993552  0.76982005    -0.02430
C820        C  0.15308231  0.84520045  0.79305208     0.07250
C821        C  0.11888636  0.84110160  0.76820817    -0.02550
C822        C  0.12052141  0.84300038  0.72232449    -0.02550
C823        C  0.15622894  0.84299385  0.70041602     0.07380
C824        C  0.18394059  0.86061313  0.72772764    -0.02740
Br825      Br  0.23259289  0.87743403  0.71526840    -0.01290
Br826      Br  0.16812148  0.92466373  0.77469668    -0.01360
Br827      Br  0.07891655  0.86949778  0.69486106    -0.01320
Br828      Br  0.07351625  0.86214641  0.79165220    -0.01310
C829        C  0.27298120  0.81665799  0.82782961    -0.02430
C830        C  0.29542919  0.84048519  0.85420790     0.07250
C831        C  0.27242194  0.86192798  0.88347522    -0.02550
C832        C  0.23121362  0.85774279  0.88344903    -0.02550
C833        C  0.21029939  0.84338634  0.84745441     0.07380
C834        C  0.23511853  0.82490388  0.81851429    -0.02740
Br835      Br  0.21820561  0.79665524  0.77117460    -0.01290
Br836      Br  0.28685614  0.76422840  0.81547781    -0.01360
Br837      Br  0.20671342  0.86405875  0.93630168    -0.01320
Br838      Br  0.29416763  0.89455545  0.92638529    -0.01310
C839        C  0.13663056  0.68422870  0.77456489    -0.02430
C840        C  0.15044208  0.65298762  0.79870638     0.07250
C841        C  0.15249621  0.61857568  0.77370160    -0.02550
C842        C  0.15711415  0.62030698  0.72875625    -0.02550
C843        C  0.15980335  0.65720781  0.70625719     0.07380
C844        C  0.14862004  0.68879841  0.73317951    -0.02740
Br845      Br  0.15618186  0.74190445  0.72673500    -0.01290
Br846      Br  0.09990010  0.72221232  0.79527580    -0.01360
Br847      Br  0.15106963  0.57057324  0.70019619    -0.01320
Br848      Br  0.12946792  0.57194376  0.79630188    -0.01310
C849        C  0.26533660  0.63417438  0.82526938    -0.02430
C850        C  0.29030700  0.65911242  0.85095178     0.07250
C851        C  0.26890843  0.66990814  0.88796596    -0.02550
C852        C  0.22782045  0.66849875  0.88992044    -0.02550
C853        C  0.20511653  0.64857124  0.85904234     0.07380
C854        C  0.22700905  0.62446163  0.83431149    -0.02740
Br855      Br  0.21289560  0.56961248  0.83140451    -0.01290
Br856      Br  0.27325784  0.60688843  0.77629057    -0.01360
Br857      Br  0.20328035  0.68505787  0.94106407    -0.01320
Br858      Br  0.29077736  0.67102236  0.94249229    -0.01310
C859        C  0.18578106  0.72685716  0.83647514    -0.02430
C860        C  0.15934976  0.70377482  0.85804449     0.07250
C861        C  0.13804209  0.72626072  0.88814452    -0.02550
C862        C  0.14277227  0.76842289  0.88948286    -0.02550
C863        C  0.16226708  0.78820950  0.85619895     0.07380
C864        C  0.19314984  0.76427714  0.84959117    -0.02740
Br865      Br  0.22944304  0.76501273  0.89500271    -0.01290
Br866      Br  0.21830420  0.70764776  0.79554031    -0.01360
Br867      Br  0.14152145  0.79162267  0.94430395    -0.01320
Br868      Br  0.10862439  0.70407661  0.93217459    -0.01310
C869        C  0.11563562  0.58263913  0.92621962    -0.02430
C870        C  0.07845721  0.59600067  0.92815834     0.07250
C871        C  0.06752573  0.62554133  0.90188559    -0.02550
C872        C  0.09203982  0.63721823  0.87028959    -0.02550
C873        C  0.13247713  0.63298140  0.87507033     0.07380
C874        C  0.14350497  0.60455325  0.90585387    -0.02740
Br875      Br  0.19348518  0.59178072  0.92670022    -0.01290
Br876      Br  0.12852724  0.53256944  0.94893260    -0.01360
Br877      Br  0.06473003  0.64111710  0.81877053    -0.01320
Br878      Br  0.01802429  0.64797633  0.90670041    -0.01310
C879        C  0.11936749  0.93214321  0.60697025    -0.02430
C880        C  0.09528160  0.91922943  0.57578430     0.07250
C881        C  0.08542888  0.87994298  0.57414902    -0.02550
C882        C  0.10809051  0.85198224  0.59345199    -0.02550
C883        C  0.13694754  0.86368109  0.62380947     0.07380
C884        C  0.13963494  0.90539425  0.63113505    -0.02740
Br885      Br  0.17199675  0.93116301  0.67056886    -0.01290
Br886      Br  0.11945754  0.98703895  0.62029747    -0.01360
Br887      Br  0.09574717  0.80102048  0.57021795    -0.01320
Br888      Br  0.03631321  0.86504250  0.55149114    -0.01310
C889        C  0.39968787  0.61300805  0.64563580    -0.02430
C890        C  0.37284723  0.64179639  0.63125330     0.07250
C891        C  0.37319686  0.64846101  0.58731209    -0.02550
C892        C  0.40142785  0.63151323  0.56259451    -0.02550
C893        C  0.42151304  0.59946458  0.57734050     0.07380
C894        C  0.41571461  0.58708582  0.61760954    -0.02740
Br895      Br  0.43415284  0.53727448  0.63648969    -0.01290
Br896      Br  0.42853074  0.61213637  0.69713988    -0.01360
Br897      Br  0.41325113  0.65299326  0.50913904    -0.01320
Br898      Br  0.33824833  0.68175300  0.55858854    -0.01310
C899        C  0.14492312  0.61744872  0.59240059    -0.02430
C900        C  0.13802346  0.63201301  0.63249921     0.07250
C901        C  0.09997607  0.62233170  0.64684758    -0.02550
C902        C  0.07584660  0.59622966  0.62333436    -0.02550
C903        C  0.08995246  0.57548602  0.58854289     0.07380
C904        C  0.12836443  0.58220158  0.57985844    -0.02740
Br905      Br  0.15828088  0.54784723  0.54683827    -0.01290
Br906      Br  0.13722879  0.65276531  0.54730747    -0.01360
Br907      Br  0.02415314  0.58856345  0.64040266    -0.01320
Br908      Br  0.07622336  0.64545176  0.69525066    -0.01310
C909        C  0.38612161  0.93341411  0.90271500    -0.02430
C910        C  0.42096723  0.91977048  0.91716316     0.07250
C911        C  0.42941142  0.88175904  0.90716605    -0.02550
C912        C  0.40065017  0.85551723  0.89591664    -0.02550
C913        C  0.36724462  0.86870421  0.87362738     0.07380
C914        C  0.36494535  0.91077336  0.87389445    -0.02740
Br915      Br  0.34769262  0.94308937  0.83001971    -0.01290
Br916      Br  0.36634543  0.98256913  0.92006159    -0.01360
Br917      Br  0.41038685  0.80815245  0.92534555    -0.01320
Br918      Br  0.48071733  0.86782612  0.89865180    -0.01310
C919        C  0.36645608  0.59521497  0.93378420    -0.02430
C920        C  0.40448045  0.58634809  0.92666373     0.07250
C921        C  0.42017760  0.59800043  0.88890826    -0.02550
C922        C  0.40107919  0.62493435  0.86295576    -0.02550
C923        C  0.36162974  0.63479896  0.87052768     0.07380
C924        C  0.34463195  0.61149721  0.90209825    -0.02740
Br925      Br  0.29911313  0.58098466  0.89349506    -0.01290
Br926      Br  0.34122173  0.58104376  0.98455646    -0.01360
Br927      Br  0.42999973  0.63812306  0.81371270    -0.01320
Br928      Br  0.46411705  0.57036396  0.86912053    -0.01310
C929        C  0.10766870  0.92208409  0.89008164    -0.02430
C930        C  0.08017461  0.90418068  0.91568114     0.07250
C931        C  0.07944568  0.86331282  0.91489473    -0.02550
C932        C  0.10003323  0.84328149  0.88432763    -0.02550
C933        C  0.13566894  0.85915455  0.86961462     0.07380
C934        C  0.13875359  0.90063405  0.87524198    -0.02740
Br935      Br  0.18433964  0.93177820  0.87019501    -0.01290
Br936      Br  0.10154491  0.97381466  0.86836709    -0.01360
Br937      Br  0.07164642  0.79887126  0.86142807    -0.01320
Br938      Br  0.05078694  0.83270651  0.95357931    -0.01310
C939        C  0.42676000  0.90063117  0.61021450    -0.02430
C940        C  0.41059458  0.92805746  0.58249307     0.07250
C941        C  0.37155775  0.92636337  0.57627027    -0.02550
C942        C  0.35057416  0.89455564  0.59082090    -0.02550
C943        C  0.36386955  0.87059515  0.62397563     0.07380
C944        C  0.40417713  0.87132481  0.62921909    -0.02740
Br945      Br  0.43131612  0.83155735  0.66010812    -0.01290
Br946      Br  0.47912555  0.90502339  0.62773049    -0.01360
Br947      Br  0.31718533  0.87659575  0.54757920    -0.01320
Br948      Br  0.34534980  0.96693270  0.54636942    -0.01310
O949        O  0.92258448  0.46942542  0.02245853    -0.80720
O950        O  0.57946126  0.03983577  0.02429537    -0.80750
O951        O  0.54070760  0.45227308  0.06018016    -0.80750
O952        O  0.97560104  0.09862476  0.03451632    -0.80700
O953        O  0.58654170  0.46029238  0.01656809    -0.80820
O954        O  0.94684108  0.04243001  0.04599198    -0.80740
O955        O  0.52989434  0.04868797  0.06303076    -0.80720
O956        O  0.96889240  0.45713272  0.06234647    -0.80760
C957        C  0.93450901  0.45384000  0.05543520     1.08970
C958        C  0.56524608  0.05220944  0.05808108     1.08850
C959        C  0.57406698  0.44684795  0.05045858     1.08990
C960        C  0.94909720  0.07960814  0.05130367     1.08870
O961        O  0.90857203  0.03493420  0.47579180    -0.80720
O962        O  0.55091344  0.46358981  0.43526176    -0.80800
O963        O  0.96181600  0.42476447  0.47645601    -0.80730
O964        O  0.53607885  0.08520593  0.48465668    -0.80710
O965        O  0.54393293  0.03938053  0.44020724    -0.80770
O966        O  0.95159629  0.47841069  0.44108259    -0.80730
O967        O  0.96224014  0.06435587  0.46101802    -0.80690
O968        O  0.54020366  0.41557425  0.47662282    -0.80760
Co969      Co  0.95347617  0.01030143  0.99207492     1.51530
Co970      Co  0.56204495  0.50097332  0.47958004     1.51690
Co971      Co  0.00289718  0.44044360  0.01824960     1.51570
Co972      Co  0.99654467  0.05240988  0.51317341     1.51470
O973        O  0.00824780  0.49596085  0.99978124    -1.42660
C974        C  0.92585479  0.06118696  0.45610308     1.08900
C975        C  0.55468205  0.42832384  0.44315816     1.08990
C976        C  0.94684211  0.44217801  0.44554283     1.08920
C977        C  0.55007883  0.07366399  0.45101395     1.08900
C978        C  0.66103456  0.15813224  0.34827499    -0.03070
C979        C  0.66444116  0.33436948  0.34228534    -0.03070
C980        C  0.66247675  0.33438867  0.14978717    -0.03070
C981        C  0.66836238  0.16054953  0.15524673    -0.03070
C982        C  0.83763631  0.16612036  0.34456028    -0.03070
C983        C  0.84509433  0.16476094  0.16061634    -0.03070
C984        C  0.83656599  0.34704202  0.15446820    -0.03070
C985        C  0.84080112  0.34027822  0.34537245    -0.03230
C986        C  0.81368407  0.37378612  0.27227459    -0.02430
C987        C  0.84403289  0.35422812  0.29540829     0.07250
C988        C  0.87869790  0.35911801  0.27201612    -0.02550
C989        C  0.87818390  0.36576570  0.22710058    -0.02550
C990        C  0.84376852  0.36318443  0.20339758     0.07380
C991        C  0.81674052  0.38190895  0.22834420    -0.02740
Br992      Br  0.81189951  0.43643188  0.21612086    -0.01290
Br993      Br  0.77359626  0.40430995  0.29841816    -0.01360
Br994      Br  0.90799259  0.41144154  0.21190407    -0.01320
Br995      Br  0.92295407  0.38061829  0.30072676    -0.01310
C996        C  0.81962971  0.23496597  0.16669494    -0.02430
C997        C  0.84924756  0.21225535  0.15350279     0.07250
C998        C  0.87616831  0.23632226  0.13063527    -0.02550
C999        C  0.86914006  0.27774787  0.12397036    -0.02550
C1000       C  0.84586031  0.30002956  0.15240712     0.07380
C1001       C  0.82523208  0.27457136  0.17785722    -0.02740
Br1002     Br  0.79761018  0.29416031  0.22257624    -0.01290
Br1003     Br  0.78257088  0.22558824  0.12552932    -0.01360
Br1004     Br  0.88549043  0.29784398  0.07130413    -0.01320
Br1005     Br  0.92372131  0.21793049  0.10948975    -0.01310
C1006       C  0.85106197  0.12289813  0.27438504    -0.02430
C1007       C  0.84921829  0.16024991  0.29591785     0.07250
C1008       C  0.86615497  0.18992551  0.27026981    -0.02550
C1009       C  0.87776795  0.18309517  0.23013312    -0.02550
C1010       C  0.85717921  0.15606040  0.20671607     0.07380
C1011       C  0.84820682  0.12193385  0.22971088    -0.02740
Br1012     Br  0.83610002  0.07344148  0.20141376    -0.01290
Br1013     Br  0.85375295  0.07244362  0.30151589    -0.01360
Br1014     Br  0.92422749  0.20783241  0.21193600    -0.01320
Br1015     Br  0.85738563  0.24269190  0.26470760    -0.01310
C1016       C  0.83422155  0.27363707  0.39058316    -0.02430
C1017       C  0.85272500  0.29511110  0.35719027     0.07250
C1018       C  0.88418755  0.27228495  0.34241381    -0.02550
C1019       C  0.88539708  0.23069255  0.34877866    -0.02550
C1020       C  0.85167098  0.21030552  0.36028029     0.07380
C1021       C  0.83803349  0.23204838  0.39440560    -0.02740
Br1022     Br  0.86473978  0.22006930  0.44558189    -0.01290
Br1023     Br  0.81415441  0.29928920  0.43886364    -0.01360
Br1024     Br  0.93337929  0.21369620  0.37018894    -0.01320
Br1025     Br  0.92787421  0.29157511  0.31447808    -0.01310
C1026       C  0.73563458  0.14035941  0.18550897    -0.02430
C1027       C  0.71429431  0.14805865  0.14945433     0.07250
C1028       C  0.73974312  0.13718032  0.11465271    -0.02550
C1029       C  0.78112095  0.13305038  0.12085727    -0.02550
C1030       C  0.80019898  0.14971360  0.15667753     0.07380
C1031       C  0.77275246  0.15654130  0.18833643    -0.02740
Br1032     Br  0.78047572  0.19192441  0.23196986    -0.01290
Br1033     Br  0.73865640  0.08405931  0.18932817    -0.01360
Br1034     Br  0.80572920  0.09093026  0.09199702    -0.01320
Br1035     Br  0.72404112  0.11696328  0.06151773    -0.01310
C1036       C  0.62177597  0.26392385  0.15016106    -0.02430
C1037       C  0.65227612  0.28907140  0.13679234     0.07250
C1038       C  0.67312276  0.26926314  0.10515474    -0.02550
C1039       C  0.67982709  0.22800868  0.10781195    -0.02550
C1040       C  0.65887200  0.20418327  0.13667400     0.07380
C1041       C  0.62333903  0.22261543  0.14352358    -0.02740
Br1042     Br  0.57931298  0.20352020  0.11368956    -0.01290
Br1043     Br  0.57487177  0.27981856  0.17369465    -0.01360
Br1044     Br  0.71094526  0.20849440  0.06455114    -0.01320
Br1045     Br  0.68662053  0.29726210  0.05517440    -0.01310
C1046       C  0.72608213  0.37505276  0.12022273    -0.02430
C1047       C  0.70727179  0.34104267  0.13743548     0.07250
C1048       C  0.73449858  0.31197477  0.14522081    -0.02550
C1049       C  0.77170849  0.31580899  0.13051695    -0.02550
C1050       C  0.79149553  0.35043001  0.13978366     0.07380
C1051       C  0.76629654  0.38256521  0.12913848    -0.02740
Br1052     Br  0.78100464  0.43622690  0.12341130    -0.01290
Br1053     Br  0.70622022  0.40079278  0.07190564    -0.01360
Br1054     Br  0.77762066  0.29945860  0.07354202    -0.01320
Br1055     Br  0.72485397  0.26845777  0.17826748    -0.01310
C1056       C  0.67680896  0.36993425  0.26980452    -0.02430
C1057       C  0.65306024  0.34519458  0.29303417     0.07250
C1058       C  0.61886395  0.34109416  0.26819027    -0.02550
C1059       C  0.62050016  0.34299610  0.22230746    -0.02550
C1060       C  0.65620804  0.34299032  0.20040200     0.07380
C1061       C  0.68391842  0.36060959  0.22771351    -0.02740
Br1062     Br  0.73257116  0.37742320  0.21525198    -0.01290
Br1063     Br  0.66806200  0.42465816  0.27466375    -0.01360
Br1064     Br  0.57889486  0.36948807  0.19483815    -0.01320
Br1065     Br  0.57348919  0.36212981  0.29163169    -0.01310
C1066       C  0.77296418  0.31666476  0.32781317    -0.02430
C1067       C  0.79540726  0.34049717  0.35419273     0.07250
C1068       C  0.77239614  0.36193676  0.38345760    -0.02550
C1069       C  0.73118921  0.35774143  0.38343171    -0.02550
C1070       C  0.71027791  0.34338241  0.34743605     0.07380
C1071       C  0.73510026  0.32490394  0.31849627    -0.02740
Br1072     Br  0.71819415  0.29665711  0.27115164    -0.01290
Br1073     Br  0.78685085  0.26423953  0.31545190    -0.01360
Br1074     Br  0.70668715  0.36405549  0.43628350    -0.01320
Br1075     Br  0.79413682  0.39457292  0.42636306    -0.01310
C1076       C  0.63662470  0.18421337  0.27454376    -0.02430
C1077       C  0.65044379  0.15297472  0.29868364     0.07250
C1078       C  0.65250643  0.11856458  0.27367706    -0.02550
C1079       C  0.65712454  0.12029971  0.22873197    -0.02550
C1080       C  0.65980518  0.15720313  0.20623590     0.07380
C1081       C  0.64861579  0.18878929  0.23316043    -0.02740
Br1082     Br  0.65618092  0.24189656  0.22672847    -0.01290
Br1083     Br  0.59988284  0.22218592  0.29525348    -0.01360
Br1084     Br  0.65109209  0.07056544  0.20016880    -0.01320
Br1085     Br  0.62948829  0.07192564  0.29627384    -0.01310
C1086       C  0.76534598  0.13418591  0.32524643    -0.02430
C1087       C  0.79031173  0.15912595  0.35093154     0.07250
C1088       C  0.76890871  0.16991616  0.38794499    -0.02550
C1089       C  0.72782047  0.16850029  0.38989656    -0.02550
C1090       C  0.70512120  0.14856975  0.35901692     0.07380
C1091       C  0.72701953  0.12446545  0.33428553    -0.02740
Br1092     Br  0.71291676  0.06961363  0.33136911    -0.01290
Br1093     Br  0.77327172  0.10690984  0.27626354    -0.01360
Br1094     Br  0.70327385  0.18505233  0.44103915    -0.01320
Br1095     Br  0.79077216  0.17102984  0.44247383    -0.01310
C1096       C  0.68576858  0.22685191  0.33644710    -0.02430
C1097       C  0.65934289  0.20376457  0.35801889     0.07250
C1098       C  0.63803132  0.22624805  0.38811822    -0.02550
C1099       C  0.64275527  0.26841123  0.38945737    -0.02550
C1100       C  0.66224770  0.28820211  0.35617490     0.07380
C1101       C  0.69313206  0.26427273  0.34956321    -0.02740
Br1102     Br  0.72942639  0.26500867  0.39497254    -0.01290
Br1103     Br  0.71830074  0.20764781  0.29551762    -0.01360
Br1104     Br  0.64150085  0.29160953  0.44427921    -0.01320
Br1105     Br  0.60861466  0.20406072  0.43214670    -0.01310
C1106       C  0.61565383  0.08265268  0.42624229    -0.02430
C1107       C  0.57847181  0.09600651  0.42816879     0.07250
C1108       C  0.56753302  0.12552311  0.40186868    -0.02550
C1109       C  0.59204655  0.13719113  0.37026803    -0.02550
C1110       C  0.63248472  0.13296537  0.37505149     0.07380
C1111       C  0.64351887  0.10455128  0.40584823    -0.02740
Br1112     Br  0.69350811  0.09177048  0.42666392    -0.01290
Br1113     Br  0.62855483  0.03261071  0.44901924    -0.01360
Br1114     Br  0.56473828  0.14107482  0.31874581    -0.01320
Br1115     Br  0.51802605  0.14794862  0.40666628    -0.01310
C1116       C  0.61940109  0.43214266  0.10691630    -0.02430
C1117       C  0.59529017  0.41922947  0.07575403     0.07250
C1118       C  0.58541284  0.37994799  0.07414138    -0.02550
C1119       C  0.60806340  0.35198188  0.09345111    -0.02550
C1120       C  0.63693069  0.36367732  0.12379795     0.07380
C1121       C  0.63963924  0.40539127  0.13110636    -0.02740
Br1122     Br  0.67198997  0.43115598  0.17055284    -0.01290
Br1123     Br  0.61958865  0.48705625  0.12015880    -0.01360
Br1124     Br  0.59568458  0.30101523  0.07025161    -0.01320
Br1125     Br  0.53629020  0.36506373  0.05148842    -0.01310
C1126       C  0.89969009  0.11302373  0.14562339    -0.02430
C1127       C  0.87285155  0.14181042  0.13123345     0.07250
C1128       C  0.87320441  0.14846567  0.08729062    -0.02550
C1129       C  0.90143583  0.13150982  0.06257971    -0.02550
C1130       C  0.92151522  0.09946079  0.07733420     0.07380
C1131       C  0.91571154  0.08709102  0.11760490    -0.02740
Br1132     Br  0.93413849  0.03728067  0.13649833    -0.01290
Br1133     Br  0.92854461  0.11217368  0.19711964    -0.01360
Br1134     Br  0.91326837  0.15297825  0.00912198    -0.01320
Br1135     Br  0.83826067  0.18175310  0.05855495    -0.01310
C1136       C  0.64491947  0.11747018  0.09236634    -0.02430
C1137       C  0.63802667  0.13201299  0.13247553     0.07250
C1138       C  0.59998822  0.12230845  0.14683484    -0.02550
C1139       C  0.57586844  0.09619072  0.12333108    -0.02550
C1140       C  0.58996874  0.07547670  0.08851778     0.07380
C1141       C  0.62837100  0.08222384  0.07980770    -0.02740
Br1142     Br  0.65828410  0.04792308  0.04672053    -0.01290
Br1143     Br  0.63721987  0.15280117  0.04728790    -0.01360
Br1144     Br  0.52420020  0.08844491  0.14045396    -0.01320
Br1145     Br  0.57622975  0.14541930  0.19524009    -0.01310
C1146       C  0.88611449  0.43344042  0.40269719    -0.02430
C1147       C  0.92095612  0.41978936  0.41715182     0.07250
C1148       C  0.92939092  0.38177490  0.40715792    -0.02550
C1149       C  0.90062388  0.35553847  0.39591222    -0.02550
C1150       C  0.86722100  0.36872717  0.37362039     0.07380
C1151       C  0.86492739  0.41079731  0.37388507    -0.02740
Br1152     Br  0.84763221  0.44310904  0.33002775    -0.01290
Br1153     Br  0.86635783  0.48260935  0.42002774    -0.01360
Br1154     Br  0.91033732  0.30818612  0.42537150    -0.01320
Br1155     Br  0.98069278  0.36782624  0.39864829    -0.01310
C1156       C  0.86646237  0.09523882  0.43377170    -0.02430
C1157       C  0.90448611  0.08636699  0.42665146     0.07250
C1158       C  0.92018115  0.09801535  0.38889302    -0.02550
C1159       C  0.90108593  0.12495437  0.36294210    -0.02550
C1160       C  0.86163670  0.13482097  0.37051264     0.07380
C1161       C  0.84463894  0.11151929  0.40208325    -0.02740
Br1162     Br  0.79912810  0.08099649  0.39347092    -0.01290
Br1163     Br  0.84122454  0.08106890  0.48454227    -0.01360
Br1164     Br  0.93000917  0.13814848  0.31370274    -0.01320
Br1165     Br  0.96410365  0.07035861  0.36909444    -0.01310
C1166       C  0.60766817  0.42208635  0.39008574    -0.02430
C1167       C  0.58017179  0.40418306  0.41568358     0.07250
C1168       C  0.57943174  0.36331490  0.41488462    -0.02550
C1169       C  0.60001480  0.34328253  0.38431335    -0.02550
C1170       C  0.63565068  0.35915170  0.36959697     0.07380
C1171       C  0.63874338  0.40063082  0.37522843    -0.02740
Br1172     Br  0.68433213  0.43176790  0.37015253    -0.01290
Br1173     Br  0.60157217  0.47384015  0.36841945    -0.01360
Br1174     Br  0.57162779  0.29886881  0.36141988    -0.01320
Br1175     Br  0.55076843  0.33270917  0.45356570    -0.01310
C1176       C  0.92675322  0.40062611  0.11021627    -0.02430
C1177       C  0.91059490  0.42805740  0.08249703     0.07250
C1178       C  0.87155742  0.42637366  0.07627280    -0.02550
C1179       C  0.85056656  0.39456886  0.09081699    -0.02550
C1180       C  0.86385557  0.37060279  0.12396828     0.07380
C1181       C  0.90416329  0.37132326  0.12921593    -0.02740
Br1182     Br  0.93129298  0.33155407  0.16011217    -0.01290
Br1183     Br  0.97911696  0.40501087  0.12774006    -0.01360
Br1184     Br  0.81718754  0.37661053  0.04756599    -0.01320
Br1185     Br  0.84535814  0.46695182  0.04637753    -0.01310
O1186       O  0.92257721  0.46943529  0.52245556    -0.80720
O1187       O  0.57945697  0.03984067  0.52432371    -0.80750
O1188       O  0.54069380  0.45226187  0.56019291    -0.80750
O1189       O  0.97559119  0.09863588  0.53450844    -0.80700
O1190       O  0.58653683  0.46029364  0.51659514    -0.80820
O1191       O  0.94683830  0.04243871  0.54599010    -0.80740
O1192       O  0.52987932  0.04870109  0.56304058    -0.80720
O1193       O  0.96888519  0.45714373  0.56234172    -0.80760
C1194       C  0.93450290  0.45384723  0.55543101     1.08970
C1195       C  0.56523276  0.05222023  0.55810253     1.08850
C1196       C  0.57405734  0.44684566  0.55048198     1.08990
C1197       C  0.94909110  0.07961700  0.55130041     1.08870
O1198       O  0.90857062  0.03491511  0.97579728    -0.80720
O1199       O  0.55090335  0.46358381  0.93524333    -0.80800
O1200       O  0.96182346  0.42475273  0.97646536    -0.80730
O1201       O  0.53607322  0.08519745  0.98464969    -0.80710
O1202       O  0.54391606  0.03937682  0.94019189    -0.80770
O1203       O  0.95159881  0.47839626  0.94108733    -0.80730
O1204       O  0.96223551  0.06434686  0.96102862    -0.80690
O1205       O  0.54020821  0.41557404  0.97661730    -0.80760
Co1206     Co  0.95347395  0.01031233  0.49207379     1.51530
Co1207     Co  0.56204093  0.50096917  0.97955761     1.51690
Co1208     Co  0.00288902  0.44044737  0.51824939     1.51570
Co1209     Co  0.99654826  0.05239948  0.01317532     1.51470
O1210       O  0.00824607  0.49596766  0.49978674    -1.42660
C1211       C  0.92585121  0.06117130  0.95611202     1.08900
C1212       C  0.55467935  0.42832023  0.94314753     1.08990
C1213       C  0.94684920  0.44216332  0.94555120     1.08920
C1214       C  0.55006531  0.07365891  0.95100193     1.08900
C1215       C  0.66103430  0.15814392  0.84829931    -0.03070
C1216       C  0.66446500  0.33437654  0.84230779    -0.03070
C1217       C  0.66249500  0.33439638  0.64980266    -0.03070
C1218       C  0.66836068  0.16054994  0.65526834    -0.03070
C1219       C  0.83763307  0.16609993  0.84457519    -0.03070
C1220       C  0.84509008  0.16474542  0.66063702    -0.03070
C1221       C  0.83658442  0.34703600  0.65448346    -0.03070
C1222       C  0.84082566  0.34025811  0.84538112    -0.03230
C1223       C  0.81371208  0.37377772  0.77229018    -0.02430
C1224       C  0.84405791  0.35421036  0.79541872     0.07250
C1225       C  0.87872332  0.35909563  0.77202580    -0.02550
C1226       C  0.87820925  0.36574966  0.72711184    -0.02550
C1227       C  0.84379249  0.36317935  0.70341082     0.07380
C1228       C  0.81676823  0.38190608  0.72836101    -0.02740
Br1229     Br  0.81194107  0.43643296  0.71614963    -0.01290
Br1230     Br  0.77363456  0.40430837  0.79844289    -0.01360
Br1231     Br  0.90802622  0.41142205  0.71192241    -0.01320
Br1232     Br  0.92298885  0.38057574  0.80073685    -0.01310
C1233       C  0.81963454  0.23495844  0.66672268    -0.02430
C1234       C  0.84924854  0.21224220  0.65352853     0.07250
C1235       C  0.87617431  0.23630639  0.63066395    -0.02550
C1236       C  0.86915253  0.27773308  0.62399612    -0.02550
C1237       C  0.84587387  0.30002055  0.65242803     0.07380
C1238       C  0.82524075  0.27456608  0.67787924    -0.02740
Br1239     Br  0.79762439  0.29416300  0.72259984    -0.01290
Br1240     Br  0.78255830  0.22557384  0.62557744    -0.01360
Br1241     Br  0.88550989  0.29782447  0.57133033    -0.01320
Br1242     Br  0.92372822  0.21790934  0.60952577    -0.01310
C1243       C  0.85104866  0.12287299  0.77440084    -0.02430
C1244       C  0.84921019  0.16022475  0.79593352     0.07250
C1245       C  0.86615372  0.18989655  0.77028878    -0.02550
C1246       C  0.87776885  0.18306601  0.73015417    -0.02550
C1247       C  0.85717486  0.15603758  0.70673446     0.07380
C1248       C  0.84819475  0.12191106  0.72972675    -0.02740
Br1249     Br  0.83608539  0.07342119  0.70142662    -0.01290
Br1250     Br  0.85373688  0.07241828  0.80153183    -0.01360
Br1251     Br  0.92423253  0.20779870  0.71196534    -0.01320
Br1252     Br  0.85737010  0.24265612  0.76471526    -0.01310
C1253       C  0.83424796  0.27362134  0.89059649    -0.02430
C1254       C  0.85274598  0.29508951  0.85719616     0.07250
C1255       C  0.88419853  0.27225470  0.84240771    -0.02550
C1256       C  0.88540405  0.23066380  0.84878028    -0.02550
C1257       C  0.85167731  0.21028358  0.86029181     0.07380
C1258       C  0.83805070  0.23203143  0.89441930    -0.02740
Br1259     Br  0.86475975  0.22004741  0.94559177    -0.01290
Br1260     Br  0.81420102  0.29928180  0.93888170    -0.01360
Br1261     Br  0.93338641  0.21366852  0.87019261    -0.01320
Br1262     Br  0.92787853  0.29152603  0.81444487    -0.01310
C1263       C  0.73562854  0.14034518  0.68552964    -0.02430
C1264       C  0.71429027  0.14804916  0.64947523     0.07250
C1265       C  0.73973785  0.13716516  0.61467379    -0.02550
C1266       C  0.78111585  0.13303458  0.62087788    -0.02550
C1267       C  0.80019437  0.14969732  0.65669805     0.07380
C1268       C  0.77274843  0.15652167  0.68835864    -0.02740
Br1269     Br  0.78047027  0.19190713  0.73198846    -0.01290
Br1270     Br  0.73863866  0.08404460  0.68935018    -0.01360
Br1271     Br  0.80572694  0.09091944  0.59201136    -0.01320
Br1272     Br  0.72403333  0.11693714  0.56154264    -0.01310
C1273       C  0.62178908  0.26393518  0.65016512    -0.02430
C1274       C  0.65229615  0.28907748  0.63680566     0.07250
C1275       C  0.67314944  0.26926317  0.60517564    -0.02550
C1276       C  0.67984366  0.22800613  0.60783482    -0.02550
C1277       C  0.65887855  0.20418551  0.63669187     0.07380
C1278       C  0.62334724  0.22262529  0.64353160    -0.02740
Br1279     Br  0.57932683  0.20353937  0.61368129    -0.01290
Br1280     Br  0.57488080  0.27984468  0.67367456    -0.01360
Br1281     Br  0.71094713  0.20847552  0.56456899    -0.01320
Br1282     Br  0.68667211  0.29725883  0.55519975    -0.01310
C1283       C  0.72610312  0.37506159  0.62024519    -0.02430
C1284       C  0.70728985  0.34105193  0.63745371     0.07250
C1285       C  0.73451318  0.31198152  0.64523866    -0.02550
C1286       C  0.77172500  0.31581075  0.63054051    -0.02550
C1287       C  0.79151399  0.35042957  0.63980507     0.07380
C1288       C  0.76631864  0.38256823  0.62916103    -0.02740
Br1289     Br  0.78103295  0.43622944  0.62344651    -0.01290
Br1290     Br  0.70623131  0.40082750  0.57194959    -0.01360
Br1291     Br  0.77766471  0.29943482  0.57357792    -0.01320
Br1292     Br  0.72486257  0.26847635  0.67829781    -0.01310
C1293       C  0.67683659  0.36993709  0.76982367    -0.02430
C1294       C  0.65308447  0.34520284  0.79305591     0.07250
C1295       C  0.61888755  0.34110667  0.76821334    -0.02550
C1296       C  0.62052160  0.34300463  0.72232962    -0.02550
C1297       C  0.65622862  0.34299687  0.70042020     0.07380
C1298       C  0.68394145  0.36061549  0.72773084    -0.02740
Br1299     Br  0.73259322  0.37743730  0.71527004    -0.01290
Br1300     Br  0.66813145  0.42466623  0.77470501    -0.01360
Br1301     Br  0.57891567  0.36950007  0.69486591    -0.01320
Br1302     Br  0.57352036  0.36215757  0.79165853    -0.01310
C1303       C  0.77298358  0.31665847  0.82783006    -0.02430
C1304       C  0.79543217  0.34048517  0.85420811     0.07250
C1305       C  0.77242560  0.36192777  0.88347631    -0.02550
C1306       C  0.73121728  0.35774287  0.88345098    -0.02550
C1307       C  0.71030236  0.34338710  0.84745663     0.07380
C1308       C  0.73512086  0.32490477  0.81851565    -0.02740
Br1309     Br  0.71820732  0.29665688  0.77117557    -0.01290
Br1310     Br  0.78685809  0.26422900  0.81547730    -0.01360
Br1311     Br  0.70671828  0.36405652  0.93630463    -0.01320
Br1312     Br  0.79417205  0.39455434  0.92638668    -0.01310
C1313       C  0.63663133  0.18422948  0.77456663    -0.02430
C1314       C  0.65044320  0.15298827  0.79870758     0.07250
C1315       C  0.65249665  0.11857643  0.77370239    -0.02550
C1316       C  0.65711316  0.12030810  0.72875680    -0.02550
C1317       C  0.65980240  0.15720912  0.70625820     0.07380
C1318       C  0.64862020  0.18879946  0.73318123    -0.02740
Br1319     Br  0.65618500  0.24190512  0.72673872    -0.01290
Br1320     Br  0.59990105  0.22221289  0.79527794    -0.01360
Br1321     Br  0.65106700  0.07057493  0.70019607    -0.01320
Br1322     Br  0.62946965  0.07194409  0.79630312    -0.01310
C1323       C  0.76533778  0.13417523  0.82526797    -0.02430
C1324       C  0.79030871  0.15911295  0.85095003     0.07250
C1325       C  0.76891081  0.16990838  0.88796483    -0.02550
C1326       C  0.72782284  0.16849890  0.88992025    -0.02550
C1327       C  0.70511839  0.14857150  0.85904256     0.07380
C1328       C  0.72701055  0.12446215  0.83431101    -0.02740
Br1329     Br  0.71289783  0.06961285  0.83140403    -0.01290
Br1330     Br  0.77325705  0.10689130  0.77628757    -0.01360
Br1331     Br  0.70328354  0.18505786  0.94106443    -0.01320
Br1332     Br  0.79078073  0.17102301  0.94249064    -0.01310
C1333       C  0.68578290  0.22685790  0.83647625    -0.02430
C1334       C  0.65935177  0.20377543  0.85804576     0.07250
C1335       C  0.63804449  0.22626127  0.88814619    -0.02550
C1336       C  0.64277479  0.26842345  0.88948491    -0.02550
C1337       C  0.66226968  0.28821038  0.85620119     0.07380
C1338       C  0.69315209  0.26427781  0.84959243    -0.02740
Br1339     Br  0.72944602  0.26501280  0.89500326    -0.01290
Br1340     Br  0.71830585  0.20764860  0.79554130    -0.01360
Br1341     Br  0.64152337  0.29162293  0.94430614    -0.01320
Br1342     Br  0.60862692  0.20407681  0.93217613    -0.01310
C1343       C  0.61563805  0.08264073  0.92622300    -0.02430
C1344       C  0.57845936  0.09600168  0.92816088     0.07250
C1345       C  0.56752765  0.12554157  0.90188729    -0.02550
C1346       C  0.59204172  0.13721833  0.87029118    -0.02550
C1347       C  0.63247909  0.13298179  0.87507181     0.07380
C1348       C  0.64350722  0.10455413  0.90585583    -0.02740
Br1349     Br  0.69348799  0.09178081  0.92670002    -0.01290
Br1350     Br  0.62853024  0.03257274  0.94893997    -0.01360
Br1351     Br  0.56473179  0.14111702  0.81877215    -0.01320
Br1352     Br  0.51802576  0.14797576  0.90670135    -0.01310
C1353       C  0.61936946  0.43214541  0.60696898    -0.02430
C1354       C  0.59528275  0.41923132  0.57578377     0.07250
C1355       C  0.58542813  0.37994520  0.57415077    -0.02550
C1356       C  0.60808774  0.35198429  0.59345656    -0.02550
C1357       C  0.63694522  0.36368333  0.62381354     0.07380
C1358       C  0.63963365  0.40539658  0.63113738    -0.02740
Br1359     Br  0.67199175  0.43116494  0.67057518    -0.01290
Br1360     Br  0.61946728  0.48704265  0.62028844    -0.01360
Br1361     Br  0.59573969  0.30102128  0.57022872    -0.01320
Br1362     Br  0.53631323  0.36504570  0.55148975    -0.01310
C1363       C  0.89968576  0.11300935  0.64563320    -0.02430
C1364       C  0.87284537  0.14179778  0.63125010     0.07250
C1365       C  0.87319567  0.14846197  0.58730884    -0.02550
C1366       C  0.90142713  0.13151394  0.56259204    -0.02550
C1367       C  0.92151178  0.09946514  0.57733857     0.07380
C1368       C  0.91571248  0.08708661  0.61760749    -0.02740
Br1369     Br  0.93415088  0.03727562  0.63648864    -0.01290
Br1370     Br  0.92852909  0.11213844  0.69713700    -0.01360
Br1371     Br  0.91325225  0.15299408  0.50913721    -0.01320
Br1372     Br  0.83824780  0.18175392  0.55858428    -0.01310
C1373       C  0.64492144  0.11744910  0.59240308    -0.02430
C1374       C  0.63802119  0.13201525  0.63250064     0.07250
C1375       C  0.59997312  0.12233578  0.64684808    -0.02550
C1376       C  0.57584306  0.09623484  0.62333401    -0.02550
C1377       C  0.58995020  0.07548754  0.58854546     0.07380
C1378       C  0.62836302  0.08220096  0.57986353    -0.02740
Br1379     Br  0.65828115  0.04784155  0.54685135    -0.01290
Br1380     Br  0.63722282  0.15276417  0.54730938    -0.01360
Br1381     Br  0.52414663  0.08857752  0.64039567    -0.01320
Br1382     Br  0.57622153  0.14545518  0.69525211    -0.01310
C1383       C  0.88612282  0.43341331  0.90271498    -0.02430
C1384       C  0.92096873  0.41977028  0.91716286     0.07250
C1385       C  0.92941413  0.38175943  0.90716459    -0.02550
C1386       C  0.90065359  0.35551706  0.89591460    -0.02550
C1387       C  0.86724766  0.36870381  0.87362584     0.07380
C1388       C  0.86494767  0.41077287  0.87389339    -0.02740
Br1389     Br  0.84769841  0.44308931  0.83001722    -0.01290
Br1390     Br  0.86634490  0.48256715  0.92006290    -0.01360
Br1391     Br  0.91039224  0.30815149  0.92534133    -0.01320
Br1392     Br  0.98072040  0.36782891  0.89864825    -0.01310
C1393       C  0.86645756  0.09521555  0.93378153    -0.02430
C1394       C  0.90448194  0.08634842  0.92666135     0.07250
C1395       C  0.92017910  0.09800010  0.88890555    -0.02550
C1396       C  0.90108052  0.12493338  0.86295225    -0.02550
C1397       C  0.86163130  0.13479858  0.87052437     0.07380
C1398       C  0.84463352  0.11149734  0.90209527    -0.02740
Br1399     Br  0.79911509  0.08098432  0.89349193    -0.01290
Br1400     Br  0.84122287  0.08104514  0.98455384    -0.01360
Br1401     Br  0.93000017  0.13812053  0.81370812    -0.01320
Br1402     Br  0.96411898  0.07036388  0.86911876    -0.01310
C1403       C  0.60766963  0.42208382  0.89008299    -0.02430
C1404       C  0.58017521  0.40418028  0.91568175     0.07250
C1405       C  0.57944709  0.36331241  0.91489590    -0.02550
C1406       C  0.60003595  0.34328155  0.88432960    -0.02550
C1407       C  0.63567207  0.35915503  0.86961846     0.07380
C1408       C  0.63875594  0.40063450  0.87524620    -0.02740
Br1409     Br  0.68434173  0.43177972  0.87020482    -0.01290
Br1410     Br  0.60154246  0.47381128  0.86836179    -0.01360
Br1411     Br  0.57164987  0.29887270  0.86142624    -0.01320
Br1412     Br  0.55078667  0.33270568  0.95357856    -0.01310
C1413       C  0.92675970  0.40063054  0.61021358    -0.02430
C1414       C  0.91059476  0.42805807  0.58249341     0.07250
C1415       C  0.87155772  0.42636596  0.57627176    -0.02550
C1416       C  0.85057316  0.39455870  0.59082179    -0.02550
C1417       C  0.86386841  0.37059662  0.62397512     0.07380
C1418       C  0.90417615  0.37132457  0.62921776    -0.02740
Br1419     Br  0.93131447  0.33155591  0.66010577    -0.01290
Br1420     Br  0.97912550  0.40502096  0.62772896    -0.01360
Br1421     Br  0.81718327  0.37660101  0.54758012    -0.01320
Br1422     Br  0.84535078  0.46693764  0.54637363    -0.01310
O1423       O  0.92258397  0.96942594  0.02245860    -0.80720
O1424       O  0.57946140  0.53983595  0.02429222    -0.80750
O1425       O  0.54070643  0.95227140  0.06018081    -0.80750
O1426       O  0.97560161  0.59862416  0.03451746    -0.80700
O1427       O  0.58654106  0.96029184  0.01656970    -0.80820
O1428       O  0.94684153  0.54242932  0.04599273    -0.80740
O1429       O  0.52989573  0.54868728  0.06302962    -0.80720
O1430       O  0.96889182  0.95713270  0.06234632    -0.80760
C1431       C  0.93450848  0.95383996  0.05543507     1.08970
C1432       C  0.56524732  0.55220871  0.05807878     1.08850
C1433       C  0.57406584  0.94684649  0.05045946     1.08990
C1434       C  0.94909804  0.57960737  0.05130510     1.08870
O1435       O  0.90857134  0.53493328  0.47579286    -0.80720
O1436       O  0.55091421  0.96359041  0.43526319    -0.80800
O1437       O  0.96181510  0.92476456  0.47645557    -0.80730
O1438       O  0.53607782  0.58520567  0.48465493    -0.80710
O1439       O  0.54393053  0.53938000  0.44020540    -0.80770
O1440       O  0.95159625  0.97841075  0.44108215    -0.80730
O1441       O  0.96223894  0.56435593  0.46101908    -0.80690
O1442       O  0.54020304  0.91557384  0.47662256    -0.80760
Co1443     Co  0.95347619  0.51030114  0.99207521     1.51530
Co1444     Co  0.56204554  0.00097323  0.47958215     1.51690
Co1445     Co  0.00289646  0.94044331  0.01824959     1.51570
Co1446     Co  0.99654468  0.55240975  0.51317337     1.51470
O1447       O  0.00824777  0.99596095  0.99978186    -1.42660
C1448       C  0.92585361  0.56118656  0.45610451     1.08900
C1449       C  0.55468205  0.92832413  0.44315844     1.08990
C1450       C  0.94684130  0.94217817  0.44554241     1.08920
C1451       C  0.55007666  0.57366355  0.45101166     1.08900
C1452       C  0.66103228  0.65813190  0.34827324    -0.03070
C1453       C  0.66443750  0.83436829  0.34228108    -0.03070
C1454       C  0.66247871  0.83438581  0.14978187    -0.03070
C1455       C  0.66836435  0.66054736  0.15524556    -0.03070
C1456       C  0.83763445  0.66612070  0.34456337    -0.03070
C1457       C  0.84509641  0.66475865  0.16062016    -0.03070
C1458       C  0.83656745  0.84703981  0.15446891    -0.03070
C1459       C  0.84079744  0.84027865  0.34537386    -0.03230
C1460       C  0.81368210  0.87378526  0.27227424    -0.02430
C1461       C  0.84403046  0.85422786  0.29540940     0.07250
C1462       C  0.87869607  0.85911758  0.27201814    -0.02550
C1463       C  0.87818325  0.86576468  0.22710241    -0.02550
C1464       C  0.84376858  0.86318300  0.20339826     0.07380
C1465       C  0.81673969  0.88190747  0.22834379    -0.02740
Br1466     Br  0.81189784  0.93643001  0.21611917    -0.01290
Br1467     Br  0.77359250  0.90430856  0.29841544    -0.01360
Br1468     Br  0.90799175  0.91144071  0.21190605    -0.01320
Br1469     Br  0.92295110  0.88061906  0.30072971    -0.01310
C1470       C  0.81963224  0.73496380  0.16669891    -0.02430
C1471       C  0.84924971  0.71225304  0.15350630     0.07250
C1472       C  0.87617084  0.73631968  0.13063907    -0.02550
C1473       C  0.86914290  0.77774527  0.12397362    -0.02550
C1474       C  0.84586250  0.80002736  0.15240939     0.07380
C1475       C  0.82523417  0.77456945  0.17785990    -0.02740
Br1476     Br  0.79761028  0.79415859  0.22257703    -0.01290
Br1477     Br  0.78257184  0.72558472  0.12553594    -0.01360
Br1478     Br  0.88549496  0.79784083  0.07130778    -0.01320
Br1479     Br  0.92372408  0.71792731  0.10949471    -0.01310
C1480       C  0.85106355  0.62289778  0.27438936    -0.02430
C1481       C  0.84921792  0.66025001  0.29592138     0.07250
C1482       C  0.86615434  0.68992572  0.27027310    -0.02550
C1483       C  0.87776868  0.68309457  0.23013699    -0.02550
C1484       C  0.85718140  0.65605869  0.20671995     0.07380
C1485       C  0.84820912  0.62193254  0.22971522    -0.02740
Br1486     Br  0.83610310  0.57343955  0.20141879    -0.01290
Br1487     Br  0.85375663  0.57244351  0.30152069    -0.01360
Br1488     Br  0.92422917  0.70783066  0.21194131    -0.01320
Br1489     Br  0.85738731  0.74269283  0.26471164    -0.01310
C1490       C  0.83421573  0.77363762  0.39058496    -0.02430
C1491       C  0.85272093  0.79511162  0.35719311     0.07250
C1492       C  0.88418487  0.77228586  0.34241959    -0.02550
C1493       C  0.88539448  0.73069345  0.34878462    -0.02550
C1494       C  0.85166782  0.71030612  0.36028395     0.07380
C1495       C  0.83802804  0.73204902  0.39440818    -0.02740
Br1496     Br  0.86473177  0.72007110  0.44558658    -0.01290
Br1497     Br  0.81414560  0.79928990  0.43886399    -0.01360
Br1498     Br  0.93337534  0.71369866  0.37020034    -0.01320
Br1499     Br  0.92787312  0.79157684  0.31448759    -0.01310
C1500       C  0.73563599  0.64035728  0.18551131    -0.02430
C1501       C  0.71429655  0.64805579  0.14945564     0.07250
C1502       C  0.73974622  0.63717635  0.11465530    -0.02550
C1503       C  0.78112390  0.63304653  0.12086104    -0.02550
C1504       C  0.80020123  0.64971055  0.15668129     0.07380
C1505       C  0.77275414  0.65653859  0.18833961    -0.02740
Br1506     Br  0.78047752  0.69192109  0.23197358    -0.01290
Br1507     Br  0.73865820  0.58405735  0.18933228    -0.01360
Br1508     Br  0.80573281  0.59092569  0.09200252    -0.01320
Br1509     Br  0.72404521  0.61695776  0.06152092    -0.01310
C1510       C  0.62177715  0.76392176  0.15015223    -0.02430
C1511       C  0.65227847  0.78906867  0.13678597     0.07250
C1512       C  0.67312740  0.76925964  0.10515074    -0.02550
C1513       C  0.67983174  0.72800534  0.10780983    -0.02550
C1514       C  0.65887481  0.70418070  0.13667104     0.07380
C1515       C  0.62334109  0.72261299  0.14351713    -0.02740
Br1516     Br  0.57931562  0.70351483  0.11368409    -0.01290
Br1517     Br  0.57487046  0.77981897  0.17367794    -0.01360
Br1518     Br  0.71095260  0.70848996  0.06455167    -0.01320
Br1519     Br  0.68662854  0.79725719  0.05517051    -0.01310
C1520       C  0.72608464  0.87504890  0.12021861    -0.02430
C1521       C  0.70727395  0.84103956  0.13743199     0.07250
C1522       C  0.73450026  0.81197182  0.14521950    -0.02550
C1523       C  0.77171086  0.81580555  0.13051744    -0.02550
C1524       C  0.79149733  0.85042702  0.13978332     0.07380
C1525       C  0.76629856  0.88256183  0.12913604    -0.02740
Br1526     Br  0.78100617  0.93622356  0.12340839    -0.01290
Br1527     Br  0.70622279  0.90078863  0.07190121    -0.01360
Br1528     Br  0.77762701  0.79945180  0.07354407    -0.01320
Br1529     Br  0.72485346  0.76845654  0.17826812    -0.01310
C1530       C  0.67680569  0.86993268  0.26979980    -0.02430
C1531       C  0.65305748  0.84519203  0.29302913     0.07250
C1532       C  0.61886235  0.84108843  0.26818365    -0.02550
C1533       C  0.62049977  0.84299144  0.22230091    -0.02550
C1534       C  0.65620826  0.84298705  0.20039664     0.07380
C1535       C  0.68391725  0.86060707  0.22770930    -0.02740
Br1536     Br  0.73257071  0.87741942  0.21524965    -0.01290
Br1537     Br  0.66804987  0.92465547  0.27465328    -0.01360
Br1538     Br  0.57889592  0.86948604  0.19483198    -0.01320
Br1539     Br  0.57348404  0.86211658  0.29162374    -0.01310
C1540       C  0.77296110  0.81666428  0.32781239    -0.02430
C1541       C  0.79540335  0.84049741  0.35419226     0.07250
C1542       C  0.77239141  0.86193746  0.38345583    -0.02550
C1543       C  0.73118452  0.85774171  0.38342890    -0.02550
C1544       C  0.71027413  0.84338169  0.34743296     0.07380
C1545       C  0.73509729  0.82490303  0.31849427    -0.02740
Br1546     Br  0.71819210  0.79665551  0.27114989    -0.01290
Br1547     Br  0.78684874  0.76423905  0.31545143    -0.01360
Br1548     Br  0.70668105  0.86405864  0.43627948    -0.01320
Br1549     Br  0.79413124  0.89457490  0.42636074    -0.01310
C1550       C  0.63662315  0.68421270  0.27454143    -0.02430
C1551       C  0.65044193  0.65297417  0.29868183     0.07250
C1552       C  0.65250514  0.61856393  0.27367569    -0.02550
C1553       C  0.65712478  0.62029872  0.22873088    -0.02550
C1554       C  0.65980563  0.65720199  0.20623446     0.07380
C1555       C  0.64861500  0.68878846  0.23315818    -0.02740
Br1556     Br  0.65617651  0.74189630  0.22672402    -0.01290
Br1557     Br  0.59988090  0.72218523  0.29525076    -0.01360
Br1558     Br  0.65109391  0.57056387  0.20016834    -0.01320
Br1559     Br  0.62948543  0.57192546  0.29627188    -0.01310
C1560       C  0.76534469  0.63418517  0.32524754    -0.02430
C1561       C  0.79030972  0.65912554  0.35093323     0.07250
C1562       C  0.76890578  0.66991582  0.38794592    -0.02550
C1563       C  0.72781752  0.66850037  0.38989612    -0.02550
C1564       C  0.70511889  0.64856986  0.35901589     0.07380
C1565       C  0.72701766  0.62446533  0.33428521    -0.02740
Br1566     Br  0.71291343  0.56961385  0.33136847    -0.01290
Br1567     Br  0.77327427  0.60690509  0.27626790    -0.01360
Br1568     Br  0.70326995  0.68505260  0.44103807    -0.01320
Br1569     Br  0.79076765  0.67102705  0.44247558    -0.01310
C1570       C  0.68576595  0.72685124  0.33644488    -0.02430
C1571       C  0.65934025  0.70376405  0.35801679     0.07250
C1572       C  0.63802834  0.72624763  0.38811576    -0.02550
C1573       C  0.64275218  0.76841078  0.38945442    -0.02550
C1574       C  0.66224434  0.78820125  0.35617159     0.07380
C1575       C  0.69312899  0.76427209  0.34956075    -0.02740
Br1576     Br  0.72942258  0.76500848  0.39497070    -0.01290
Br1577     Br  0.71829840  0.70764708  0.29551551    -0.01360
Br1578     Br  0.64149891  0.79160939  0.44427613    -0.01320
Br1579     Br  0.60861174  0.70406078  0.43214459    -0.01310
C1580       C  0.61565112  0.58265116  0.42623832    -0.02430
C1581       C  0.57846940  0.59600565  0.42816588     0.07250
C1582       C  0.56753082  0.62552315  0.40186682    -0.02550
C1583       C  0.59204421  0.63719123  0.37026610    -0.02550
C1584       C  0.63248233  0.63296512  0.37504945     0.07380
C1585       C  0.64351630  0.60455051  0.40584563    -0.02740
Br1586     Br  0.69350504  0.59177054  0.42666329    -0.01290
Br1587     Br  0.62855156  0.53260745  0.44901114    -0.01360
Br1588     Br  0.56473580  0.64107478  0.31874399    -0.01320
Br1589     Br  0.51802457  0.64794996  0.40666574    -0.01310
C1590       C  0.61939972  0.93214053  0.10691676    -0.02430
C1591       C  0.59528909  0.91922777  0.07575422     0.07250
C1592       C  0.58541366  0.87994597  0.07413916    -0.02550
C1593       C  0.60806653  0.85197995  0.09344548    -0.02550
C1594       C  0.63693345  0.86367504  0.12379275     0.07380
C1595       C  0.63964122  0.90538889  0.13110294    -0.02740
Br1596     Br  0.67199622  0.93115392  0.17054491    -0.01290
Br1597     Br  0.61958017  0.98705272  0.12016673    -0.01360
Br1598     Br  0.59569292  0.80101482  0.07023879    -0.01320
Br1599     Br  0.53629007  0.86506072  0.05148985    -0.01310
C1600       C  0.89969235  0.61302205  0.14562638    -0.02430
C1601       C  0.87285343  0.64180850  0.13123697     0.07250
C1602       C  0.87320550  0.64846400  0.08729415    -0.02550
C1603       C  0.90143659  0.63150856  0.06258255    -0.02550
C1604       C  0.92151660  0.59945976  0.07733653     0.07380
C1605       C  0.91571383  0.58708980  0.11760737    -0.02740
Br1606     Br  0.93414076  0.53727920  0.13649987    -0.01290
Br1607     Br  0.92854652  0.61217158  0.19712284    -0.01360
Br1608     Br  0.91326755  0.65297718  0.00912441    -0.01320
Br1609     Br  0.83826087  0.68175114  0.05855936    -0.01310
C1610       C  0.64492131  0.61746931  0.09236379    -0.02430
C1611       C  0.63802886  0.63201079  0.13247377     0.07250
C1612       C  0.59999088  0.62230492  0.14683372    -0.02550
C1613       C  0.57587172  0.59618600  0.12333092    -0.02550
C1614       C  0.58997093  0.57547502  0.08851523     0.07380
C1615       C  0.62837247  0.58222391  0.07980293    -0.02740
Br1616     Br  0.65828389  0.54792766  0.04670841    -0.01290
Br1617     Br  0.63722638  0.65280128  0.04728537    -0.01360
Br1618     Br  0.52420614  0.58843224  0.14045977    -0.01320
Br1619     Br  0.57623106  0.64541710  0.19523751    -0.01310
C1620       C  0.88611341  0.93344195  0.40269617    -0.02430
C1621       C  0.92095437  0.91978974  0.41715174     0.07250
C1622       C  0.92938701  0.88177420  0.40716003    -0.02550
C1623       C  0.90061863  0.85553888  0.39591552    -0.02550
C1624       C  0.86721680  0.86872802  0.37362231     0.07380
C1625       C  0.86492467  0.91079834  0.37388565    -0.02740
Br1626     Br  0.84762519  0.94310920  0.33002981    -0.01290
Br1627     Br  0.86635955  0.98261295  0.42002407    -0.01360
Br1628     Br  0.91032701  0.80818885  0.42538091    -0.01320
Br1629     Br  0.98068810  0.86782079  0.39865445    -0.01310
C1630       C  0.86646067  0.59523794  0.43377391    -0.02430
C1631       C  0.90448455  0.58636683  0.42665364     0.07250
C1632       C  0.92017981  0.59801672  0.38889594    -0.02550
C1633       C  0.90108478  0.62495678  0.36294626    -0.02550
C1634       C  0.86163505  0.63482196  0.37051619     0.07380
C1635       C  0.84463725  0.61151897  0.40208579    -0.02740
Br1636     Br  0.79912640  0.58099625  0.39347259    -0.01290
Br1637     Br  0.84122293  0.58106672  0.48454410    -0.01360
Br1638     Br  0.93000940  0.63815426  0.31370882    -0.01320
Br1639     Br  0.96410207  0.57036035  0.36909605    -0.01310
C1640       C  0.60766660  0.92208666  0.39008346    -0.02430
C1641       C  0.58017086  0.90418344  0.41568244     0.07250
C1642       C  0.57943008  0.86331530  0.41488298    -0.02550
C1643       C  0.60001146  0.84328245  0.38431066    -0.02550
C1644       C  0.63564671  0.85915124  0.36959189     0.07380
C1645       C  0.63874020  0.90063041  0.37522276    -0.02740
Br1646     Br  0.68432912  0.93176641  0.37014028    -0.01290
Br1647     Br  0.60157405  0.97384385  0.36842452    -0.01360
Br1648     Br  0.57162347  0.79886716  0.36142171    -0.01320
Br1649     Br  0.55076932  0.83270997  0.45356672    -0.01310
C1650       C  0.92675356  0.90062646  0.11021714    -0.02430
C1651       C  0.91059472  0.92805650  0.08249663     0.07250
C1652       C  0.87155747  0.92637044  0.07627099    -0.02550
C1653       C  0.85056771  0.89456505  0.09081579    -0.02550
C1654       C  0.86385684  0.87060075  0.12396863     0.07380
C1655       C  0.90416439  0.87132307  0.12921710    -0.02740
Br1656     Br  0.93129479  0.83155502  0.16011421    -0.01290
Br1657     Br  0.97911697  0.90501322  0.12774170    -0.01360
Br1658     Br  0.81719005  0.87660417  0.04756465    -0.01320
Br1659     Br  0.84535701  0.96694589  0.04637260    -0.01310
O1660       O  0.92257670  0.96943567  0.52245547    -0.80720
O1661       O  0.57945701  0.53984117  0.52432044    -0.80750
O1662       O  0.54069258  0.95225988  0.56019346    -0.80750
O1663       O  0.97559164  0.59863561  0.53450923    -0.80700
O1664       O  0.58653624  0.96029274  0.51659678    -0.80820
O1665       O  0.94683861  0.54243838  0.54599063    -0.80740
O1666       O  0.52988063  0.54870089  0.56303933    -0.80720
O1667       O  0.96888462  0.95714357  0.56234137    -0.80760
C1668       C  0.93450238  0.95384715  0.55543076     1.08970
C1669       C  0.56523393  0.55221983  0.55810014     1.08850
C1670       C  0.57405619  0.94684391  0.55048292     1.08990
C1671       C  0.94909178  0.57961659  0.55130150     1.08870
O1672       O  0.90856998  0.53491416  0.97579861    -0.80720
O1673       O  0.55090413  0.96358447  0.93524479    -0.80800
O1674       O  0.96182263  0.92475286  0.97646526    -0.80730
O1675       O  0.53607229  0.58519697  0.98464817    -0.80710
O1676       O  0.54391380  0.53937613  0.94019018    -0.80770
O1677       O  0.95159874  0.97839626  0.94108704    -0.80730
O1678       O  0.96223438  0.56434685  0.96102991    -0.80690
O1679       O  0.54020762  0.91557381  0.97661729    -0.80760
Co1680     Co  0.95347391  0.51031215  0.49207404     1.51530
Co1681     Co  0.56204143  0.00096932  0.97955965     1.51690
Co1682     Co  0.00288824  0.94044686  0.51824919     1.51570
Co1683     Co  0.99654835  0.55239909  0.01317545     1.51470
O1684       O  0.00824608  0.99596755  0.49978734    -1.42660
C1685       C  0.92585010  0.56117086  0.95611372     1.08900
C1686       C  0.55467943  0.92832060  0.94314804     1.08990
C1687       C  0.94684844  0.94216342  0.94555109     1.08920
C1688       C  0.55006328  0.57365829  0.95099986     1.08900
C1689       C  0.66103250  0.65814347  0.84829827    -0.03070
C1690       C  0.66446209  0.83437539  0.84230466    -0.03070
C1691       C  0.66249677  0.83439376  0.64979848    -0.03070
C1692       C  0.66836273  0.66054772  0.65526750    -0.03070
C1693       C  0.83763139  0.66609978  0.84457800    -0.03070
C1694       C  0.84509201  0.66474345  0.66064061    -0.03070
C1695       C  0.83658574  0.84703439  0.65448432    -0.03070
C1696       C  0.84082286  0.84025834  0.84538220    -0.03230
C1697       C  0.81371050  0.87377722  0.77229009    -0.02430
C1698       C  0.84405602  0.85421034  0.79541969     0.07250
C1699       C  0.87872189  0.85909571  0.77202754    -0.02550
C1700       C  0.87820876  0.86574941  0.72711349    -0.02550
C1701       C  0.84379259  0.86317862  0.70341156     0.07380
C1702       C  0.81676754  0.88190519  0.72836090    -0.02740
Br1703     Br  0.81193941  0.93643177  0.71614861    -0.01290
Br1704     Br  0.77363147  0.90430721  0.79844106    -0.01360
Br1705     Br  0.90802538  0.91142212  0.71192437    -0.01320
Br1706     Br  0.92298670  0.88057633  0.80073939    -0.01310
C1707       C  0.81963691  0.73495679  0.66672666    -0.02430
C1708       C  0.84925062  0.71224035  0.65353223     0.07250
C1709       C  0.87617678  0.73630434  0.63066802    -0.02550
C1710       C  0.86915527  0.77773102  0.62399959    -0.02550
C1711       C  0.84587589  0.80001892  0.65243043     0.07380
C1712       C  0.82524261  0.77456478  0.67788198    -0.02740
Br1713     Br  0.79762444  0.79416214  0.72260092    -0.01290
Br1714     Br  0.78255935  0.72557089  0.62558378    -0.01360
Br1715     Br  0.88551432  0.79782183  0.57133418    -0.01320
Br1716     Br  0.92373096  0.71790673  0.60953105    -0.01310
C1717       C  0.85104910  0.62287193  0.77440472    -0.02430
C1718       C  0.84920947  0.66022404  0.79593674     0.07250
C1719       C  0.86615325  0.68989569  0.77029206    -0.02550
C1720       C  0.87776974  0.68306455  0.73015809    -0.02550
C1721       C  0.85717669  0.65603564  0.70673810     0.07380
C1722       C  0.84819631  0.62190935  0.72973059    -0.02740
Br1723     Br  0.83608801  0.57341904  0.70143079    -0.01290
Br1724     Br  0.85373777  0.57241750  0.80153638    -0.01360
Br1725     Br  0.92423403  0.70779684  0.71197082    -0.01320
Br1726     Br  0.85736953  0.74265513  0.76471793    -0.01310
C1727       C  0.83424427  0.77362175  0.89059803    -0.02430
C1728       C  0.85274297  0.79508978  0.85719797     0.07250
C1729       C  0.88419601  0.77225506  0.84241070    -0.02550
C1730       C  0.88540176  0.73066423  0.84878386    -0.02550
C1731       C  0.85167488  0.71028378  0.86029458     0.07380
C1732       C  0.83804723  0.73203186  0.89442145    -0.02740
Br1733     Br  0.86475488  0.72004842  0.94559508    -0.01290
Br1734     Br  0.81419586  0.79928254  0.93888233    -0.01360
Br1735     Br  0.93338358  0.71367017  0.87019887    -0.01320
Br1736     Br  0.92787631  0.79152652  0.81444859    -0.01310
C1737       C  0.73563005  0.64034234  0.68553141    -0.02430
C1738       C  0.71429248  0.64804622  0.64947631     0.07250
C1739       C  0.73974083  0.63716174  0.61467583    -0.02550
C1740       C  0.78111873  0.63303137  0.62088087    -0.02550
C1741       C  0.80019652  0.64969457  0.65670125     0.07380
C1742       C  0.77274998  0.65651875  0.68836132    -0.02740
Br1743     Br  0.78047099  0.69190441  0.73199102    -0.01290
Br1744     Br  0.73864103  0.58404178  0.68935247    -0.01360
Br1745     Br  0.80573047  0.59091580  0.59201564    -0.01320
Br1746     Br  0.72403712  0.61693255  0.56154516    -0.01310
C1747       C  0.62179038  0.76393309  0.65015784    -0.02430
C1748       C  0.65229840  0.78907492  0.63680055     0.07250
C1749       C  0.67315372  0.76926002  0.60517257    -0.02550
C1750       C  0.67984806  0.72800312  0.60783335    -0.02550
C1751       C  0.65888134  0.70418301  0.63668957     0.07380
C1752       C  0.62334938  0.72262288  0.64352639    -0.02740
Br1753     Br  0.57932908  0.70353392  0.61367798    -0.01290
Br1754     Br  0.57488000  0.77984462  0.67366066    -0.01360
Br1755     Br  0.71095412  0.70847185  0.56456985    -0.01320
Br1756     Br  0.68667932  0.79725456  0.55519683    -0.01310
C1757       C  0.72610526  0.87505841  0.62024204    -0.02430
C1758       C  0.70729177  0.84104931  0.63745101     0.07250
C1759       C  0.73451477  0.81197909  0.64523769    -0.02550
C1760       C  0.77172717  0.81580799  0.63054114    -0.02550
C1761       C  0.79151562  0.85042722  0.63980501     0.07380
C1762       C  0.76632038  0.88256550  0.62915926    -0.02740
Br1763     Br  0.78103430  0.93622674  0.62344431    -0.01290
Br1764     Br  0.70623328  0.90082431  0.57194644    -0.01360
Br1765     Br  0.77767063  0.79942887  0.57358003    -0.01320
Br1766     Br  0.72486241  0.76847556  0.67829868    -0.01310
C1767       C  0.67683397  0.86993554  0.76982005    -0.02430
C1768       C  0.65308229  0.84520047  0.79305208     0.07250
C1769       C  0.61888634  0.84110164  0.76820817    -0.02550
C1770       C  0.62052140  0.84300041  0.72232449    -0.02550
C1771       C  0.65622892  0.84299387  0.70041603     0.07380
C1772       C  0.68394058  0.86061314  0.72772764    -0.02740
Br1773     Br  0.73259288  0.87743403  0.71526841    -0.01290
Br1774     Br  0.66812149  0.92466375  0.77469668    -0.01360
Br1775     Br  0.57891655  0.86949782  0.69486105    -0.01320
Br1776     Br  0.57351625  0.86214648  0.79165220    -0.01310
C1777       C  0.77298117  0.81665798  0.82782963    -0.02430
C1778       C  0.79542916  0.84048518  0.85420791     0.07250
C1779       C  0.77242192  0.86192800  0.88347522    -0.02550
C1780       C  0.73121360  0.85774281  0.88344903    -0.02550
C1781       C  0.71029937  0.84338635  0.84745441     0.07380
C1782       C  0.73511851  0.82490388  0.81851430    -0.02740
Br1783     Br  0.71820560  0.79665526  0.77117460    -0.01290
Br1784     Br  0.78685613  0.76422839  0.81547778    -0.01360
Br1785     Br  0.70671340  0.86405877  0.93630168    -0.01320
Br1786     Br  0.79416762  0.89455549  0.92638526    -0.01310
C1787       C  0.63663050  0.68422873  0.77456490    -0.02430
C1788       C  0.65044202  0.65298765  0.79870640     0.07250
C1789       C  0.65249614  0.61857570  0.77370162    -0.02550
C1790       C  0.65711408  0.62030699  0.72875628    -0.02550
C1791       C  0.65980330  0.65720782  0.70625722     0.07380
C1792       C  0.64861998  0.68879843  0.73317953    -0.02740
Br1793     Br  0.65618182  0.74190447  0.72673503    -0.01290
Br1794     Br  0.59990004  0.72221234  0.79527581    -0.01360
Br1795     Br  0.65106956  0.57057325  0.70019622    -0.01320
Br1796     Br  0.62946782  0.57194379  0.79630190    -0.01310
C1797       C  0.76533656  0.63417437  0.82526940    -0.02430
C1798       C  0.79030696  0.65911242  0.85095181     0.07250
C1799       C  0.76890838  0.66990812  0.88796599    -0.02550
C1800       C  0.72782040  0.66849876  0.88992045    -0.02550
C1801       C  0.70511648  0.64857126  0.85904235     0.07380
C1802       C  0.72700899  0.62446165  0.83431150    -0.02740
Br1803     Br  0.71289551  0.56961251  0.83140452    -0.01290
Br1804     Br  0.77325788  0.60688833  0.77629067    -0.01360
Br1805     Br  0.70328030  0.68505789  0.94106408    -0.01320
Br1806     Br  0.79077729  0.67102221  0.94249233    -0.01310
C1807       C  0.68578101  0.72685718  0.83647513    -0.02430
C1808       C  0.65934972  0.70377484  0.85804449     0.07250
C1809       C  0.63804205  0.72626076  0.88814453    -0.02550
C1810       C  0.64277224  0.76842292  0.88948286    -0.02550
C1811       C  0.66226705  0.78820952  0.85619895     0.07380
C1812       C  0.69314980  0.76427715  0.84959115    -0.02740
Br1813     Br  0.72944300  0.76501272  0.89500268    -0.01290
Br1814     Br  0.71830416  0.70764777  0.79554031    -0.01360
Br1815     Br  0.64152142  0.79162271  0.94430395    -0.01320
Br1816     Br  0.60862436  0.70407665  0.93217462    -0.01310
C1817       C  0.61563554  0.58263908  0.92621951    -0.02430
C1818       C  0.57845714  0.59600065  0.92815829     0.07250
C1819       C  0.56752568  0.62554137  0.90188562    -0.02550
C1820       C  0.59203976  0.63721829  0.87028962    -0.02550
C1821       C  0.63247707  0.63298143  0.87507033     0.07380
C1822       C  0.64350490  0.60455325  0.90585384    -0.02740
Br1823     Br  0.69348509  0.59178074  0.92670025    -0.01290
Br1824     Br  0.62852713  0.53256929  0.94893226    -0.01360
Br1825     Br  0.56472996  0.64111715  0.81877056    -0.01320
Br1826     Br  0.51802426  0.64797642  0.90670050    -0.01310
C1827       C  0.61936752  0.93214321  0.60697022    -0.02430
C1828       C  0.59528162  0.91922944  0.57578427     0.07250
C1829       C  0.58542887  0.87994299  0.57414902    -0.02550
C1830       C  0.60809050  0.85198224  0.59345199    -0.02550
C1831       C  0.63694753  0.86368110  0.62380947     0.07380
C1832       C  0.63963495  0.90539425  0.63113503    -0.02740
Br1833     Br  0.67199675  0.93116301  0.67056885    -0.01290
Br1834     Br  0.61945763  0.98703896  0.62029738    -0.01360
Br1835     Br  0.59574714  0.80102048  0.57021798    -0.01320
Br1836     Br  0.53631320  0.86504252  0.55149114    -0.01310
C1837       C  0.89968785  0.61300800  0.64563583    -0.02430
C1838       C  0.87284720  0.64179634  0.63125333     0.07250
C1839       C  0.87319682  0.64846094  0.58731211    -0.02550
C1840       C  0.90142782  0.63151318  0.56259454    -0.02550
C1841       C  0.92151303  0.59946454  0.57734053     0.07380
C1842       C  0.91571459  0.58708578  0.61760957    -0.02740
Br1843     Br  0.93415286  0.53727445  0.63648972    -0.01290
Br1844     Br  0.92853070  0.61213633  0.69713992    -0.01360
Br1845     Br  0.91325109  0.65299321  0.50913907    -0.01320
Br1846     Br  0.83824828  0.68175292  0.55858856    -0.01310
C1847       C  0.64492309  0.61744874  0.59240062    -0.02430
C1848       C  0.63802343  0.63201302  0.63249924     0.07250
C1849       C  0.59997603  0.62233172  0.64684759    -0.02550
C1850       C  0.57584656  0.59622968  0.62333436    -0.02550
C1851       C  0.58995243  0.57548603  0.58854290     0.07380
C1852       C  0.62836441  0.58220159  0.57985847    -0.02740
Br1853     Br  0.65828087  0.54784721  0.54683833    -0.01290
Br1854     Br  0.63722874  0.65276532  0.54730750    -0.01360
Br1855     Br  0.52415310  0.58856348  0.64040263    -0.01320
Br1856     Br  0.57622331  0.64545177  0.69525067    -0.01310
C1857       C  0.88612163  0.93341413  0.90271492    -0.02430
C1858       C  0.92096723  0.91977048  0.91716313     0.07250
C1859       C  0.92941136  0.88175901  0.90716610    -0.02550
C1860       C  0.90065008  0.85551722  0.89591673    -0.02550
C1861       C  0.86724457  0.86870421  0.87362740     0.07380
C1862       C  0.86494535  0.91077337  0.87389439    -0.02740
Br1863     Br  0.84769267  0.94308934  0.83001960    -0.01290
Br1864     Br  0.86634548  0.98256920  0.92006142    -0.01360
Br1865     Br  0.91038657  0.80815253  0.92534587    -0.01320
Br1866     Br  0.98071725  0.86782594  0.89865198    -0.01310
C1867       C  0.86645608  0.59521498  0.93378419    -0.02430
C1868       C  0.90448046  0.58634812  0.92666371     0.07250
C1869       C  0.92017760  0.59800047  0.88890824    -0.02550
C1870       C  0.90107917  0.62493440  0.86295577    -0.02550
C1871       C  0.86162971  0.63479897  0.87052769     0.07380
C1872       C  0.84463194  0.61149720  0.90209825    -0.02740
Br1873     Br  0.79911314  0.58098462  0.89349503    -0.01290
Br1874     Br  0.84122174  0.58104375  0.98455644    -0.01360
Br1875     Br  0.92999973  0.63812321  0.81371275    -0.01320
Br1876     Br  0.96411700  0.57036397  0.86912045    -0.01310
C1877       C  0.60766869  0.92208411  0.89008165    -0.02430
C1878       C  0.58017459  0.90418069  0.91568114     0.07250
C1879       C  0.57944566  0.86331283  0.91489472    -0.02550
C1880       C  0.60003321  0.84328151  0.88432762    -0.02550
C1881       C  0.63566892  0.85915457  0.86961462     0.07380
C1882       C  0.63875358  0.90063407  0.87524198    -0.02740
Br1883     Br  0.68433962  0.93177822  0.87019502    -0.01290
Br1884     Br  0.60154488  0.97381467  0.86836709    -0.01360
Br1885     Br  0.57164640  0.79887128  0.86142803    -0.01320
Br1886     Br  0.55078688  0.83270652  0.95357926    -0.01310
C1887       C  0.92675999  0.90063113  0.61021450    -0.02430
C1888       C  0.91059456  0.92805742  0.58249308     0.07250
C1889       C  0.87155773  0.92636331  0.57627027    -0.02550
C1890       C  0.85057415  0.89455558  0.59082090    -0.02550
C1891       C  0.86386954  0.87059510  0.62397563     0.07380
C1892       C  0.90417712  0.87132476  0.62921909    -0.02740
Br1893     Br  0.93131612  0.83155729  0.66010809    -0.01290
Br1894     Br  0.97912553  0.90502335  0.62773048    -0.01360
Br1895     Br  0.81718533  0.87659567  0.54757920    -0.01320
Br1896     Br  0.84534977  0.96693262  0.54636940    -0.01310
loop_ 
_geom_bond_atom_site_label_1 
_geom_bond_atom_site_label_2 
_geom_bond_distance 
_geom_bond_site_symmetry_2 
_ccdc_geom_bond_type 
O1            C9   1.267       .  A
O1         Co495   2.036   1_554  S
O2           C10   1.277       .  A
O2         Co733   2.047   1_554  S
O3           C11   1.241       .  A
O3         Co971   1.934       .  S
O4           C12   1.267       .  A
O4         Co261   1.890       .  S
O5           C11   1.272       .  A
O5         Co259   2.044   1_554  S
O6           C12   1.291       .  A
O6          Co21   2.071   1_554  S
O7           C10   1.269       .  A
O7        Co1209   1.994   1_455  S
O8            C9   1.241       .  A
O8          Co23   1.959       .  S
C9          C229   1.509       .  S
C10         C192   1.527       .  S
C11         C169   1.467       .  S
C12         C182   1.465       .  S
O13          C26   1.264       .  A
O13        Co258   1.884       .  S
O14          C27   1.250       .  A
O14         Co22   1.951       .  S
O15          C28   1.282       .  A
O15        Co260   2.042       .  S
O16          C29   1.261       .  A
O16        Co972   2.022   1_455  S
O17          C29   1.244       .  A
O17        Co496   1.951       .  S
O18          C28   1.266       .  A
O18        Co732   1.972       .  S
O19          C26   1.301       .  A
O19         Co24   2.114       .  S
O20          C27   1.279       .  A
O20       Co1208   2.079       .  S
Co21        O475   2.036   1_546  S
Co21        O250   1.884       .  S
Co21        O729   1.972   1_545  S
Co21        O499   2.022   1_545  S
Co22        O713   2.047       .  S
Co22        O242   2.044       .  S
Co22        O491   1.951       .  S
Co22       O1210   2.026       .  S
Co23        O951   1.934       .  S
Co23        O252   2.042   1_554  S
Co23       O1205   2.079   1_554  S
Co23         O25   2.013   1_554  S
Co24        O241   1.890       .  S
Co24       O1192   1.995       .  S
Co24        O964   2.022       .  S
Co24        O736   2.034   1_545  S
O25        Co495   2.022       .  S
O25       Co1207   2.026       .  S
O25        Co735   2.034   1_556  S
C26         C209   1.498       .  S
C27         C219   1.520       .  S
C28         C199   1.495       .  S
C29         C159   1.467       .  S
C30         C129   1.649       .  S
C30         C142   1.635       .  S
C30         C149   1.601       .  S
C30         C162   1.590       .  S
C31         C109   1.683       .  S
C31         C122   1.657       .  S
C31         C152   1.655       .  S
C31         C222   1.602       .  S
C32          C89   1.647       .  S
C32          C99   1.654       .  S
C32         C112   1.675       .  S
C32         C172   1.600       .  S
C33          C79   1.699       .  S
C33          C92   1.658       .  S
C33         C132   1.681       .  S
C33         C189   1.616       .  S
C34          C59   1.638       .  S
C34          C72   1.668       .  S
C34         C139   1.706       .  S
C34         C212   1.615       .  S
C35          C49   1.657       .  S
C35          C62   1.577       .  S
C35          C82   1.671       .  S
C35         C179   1.585       .  S
C36          C42   1.687       .  S
C36          C52   1.655       .  S
C36         C102   1.668       .  S
C36         C232   1.604       .  S
C37          C39   1.691       .  S
C37          C69   1.662       .  S
C37         C119   1.636       .  S
C37         C202   1.618       .  S
C38          C39   1.476       .  A
C38          C43   1.452       .  A
C38         Br45   1.968       .  S
C39          C40   1.456       .  A
C40          C41   1.470       .  A
C40         Br47   1.951       .  S
C41          C42   1.436       .  A
C41         Br46   1.952       .  S
C42          C43   1.414       .  A
C43         Br44   1.930       .  S
C48          C49   1.383       .  A
C48          C53   1.418       .  A
C48         Br55   1.884       .  S
C49          C50   1.465       .  A
C50          C51   1.467       .  A
C50         Br57   1.934       .  S
C51          C52   1.458       .  A
C51         Br56   1.932       .  S
C52          C53   1.409       .  A
C53         Br54   1.876       .  S
C58          C59   1.459       .  A
C58          C63   1.445       .  A
C58         Br65   1.954       .  S
C59          C60   1.448       .  A
C60          C61   1.382       .  A
C60         Br67   1.855       .  S
C61          C62   1.391       .  A
C61         Br66   1.942       .  S
C62          C63   1.429       .  A
C63         Br64   1.938       .  S
C68          C69   1.467       .  A
C68          C73   1.445       .  A
C68         Br75   1.930       .  S
C69          C70   1.452       .  A
C70          C71   1.449       .  A
C70         Br77   1.913       .  S
C71          C72   1.432       .  A
C71         Br76   1.928       .  S
C72          C73   1.418       .  A
C73         Br74   1.946       .  S
C78          C79   1.411       .  A
C78          C83   1.425       .  A
C78         Br85   1.946       .  S
C79          C80   1.494       .  A
C80          C81   1.487       .  A
C80         Br87   1.922       .  S
C81          C82   1.446       .  A
C81         Br86   1.936       .  S
C82          C83   1.436       .  A
C83         Br84   1.871       .  S
C88          C89   1.448       .  A
C88          C93   1.438       .  A
C88         Br95   1.916       .  S
C89          C90   1.437       .  A
C90          C91   1.445       .  A
C90         Br97   1.946       .  S
C91          C92   1.450       .  A
C91         Br96   1.909       .  S
C92          C93   1.434       .  A
C93         Br94   1.933       .  S
C98          C99   1.457       .  A
C98         C103   1.471       .  A
C98        Br105   1.931       .  S
C99         C100   1.420       .  A
C100        C101   1.410       .  A
C100       Br107   1.876       .  S
C101        C102   1.405       .  A
C101       Br106   1.933       .  S
C102        C103   1.470       .  A
C103       Br104   1.924       .  S
C108        C109   1.414       .  A
C108        C113   1.419       .  A
C108       Br115   1.917       .  S
C109        C110   1.452       .  A
C110        C111   1.485       .  A
C110       Br117   1.928       .  S
C111        C112   1.455       .  A
C111       Br116   1.952       .  S
C112        C113   1.440       .  A
C113       Br114   1.861       .  S
C118        C119   1.412       .  A
C118        C123   1.405       .  A
C118       Br125   1.915       .  S
C119        C120   1.455       .  A
C120        C121   1.466       .  A
C120       Br127   1.927       .  S
C121        C122   1.453       .  A
C121       Br126   1.933       .  S
C122        C123   1.438       .  A
C123       Br124   1.894       .  S
C128        C129   1.422       .  A
C128        C133   1.415       .  A
C128       Br135   1.971       .  S
C129        C130   1.431       .  A
C130        C131   1.463       .  A
C130       Br137   1.943       .  S
C131        C132   1.471       .  A
C131       Br136   1.946       .  S
C132        C133   1.447       .  A
C133       Br134   1.858       .  S
C138        C139   1.472       .  A
C138        C143   1.428       .  A
C138       Br145   1.857       .  S
C139        C140   1.468       .  A
C140        C141   1.458       .  A
C140       Br147   1.917       .  S
C141        C142   1.440       .  A
C141       Br146   1.956       .  S
C142        C143   1.393       .  A
C143       Br144   1.949       .  S
C148        C149   1.413       .  A
C148        C153   1.374       .  A
C148       Br155   1.881       .  S
C149        C150   1.458       .  A
C150        C151   1.459       .  A
C150       Br157   1.927       .  S
C151        C152   1.452       .  A
C151       Br156   1.937       .  S
C152        C153   1.393       .  A
C153       Br154   1.942       .  S
C158        C159   1.402       .  A
C158        C163   1.407       .  A
C158       Br165   1.936       .  S
C159        C160   1.386       .  A
C160        C161   1.404       .  A
C160       Br167   1.931       .  S
C161        C162   1.449       .  A
C161       Br166   1.924       .  S
C162        C163   1.454       .  A
C163       Br164   1.945       .  S
C168        C169   1.382       .  A
C168        C173   1.410       .  A
C168       Br175   1.934       .  S
C169        C170   1.393       .  A
C170        C171   1.406       .  A
C170       Br177   1.944       .  S
C171        C172   1.462       .  A
C171       Br176   1.946       .  S
C172        C173   1.455       .  A
C173       Br174   1.912       .  S
C178        C179   1.457       .  A
C178        C183   1.394       .  A
C178       Br185   1.945       .  S
C179        C180   1.439       .  A
C180        C181   1.413       .  A
C180       Br187   1.933       .  S
C181        C182   1.403       .  A
C181       Br186   1.930       .  S
C182        C183   1.388       .  A
C183       Br184   1.942       .  S
C188        C189   1.409       .  A
C188        C193   1.397       .  A
C188       Br195   1.923       .  S
C189        C190   1.465       .  A
C190        C191   1.441       .  A
C190       Br197   1.949       .  S
C191        C192   1.423       .  A
C191       Br196   1.933       .  S
C192        C193   1.409       .  A
C193       Br194   1.919       .  S
C198        C199   1.403       .  A
C198        C203   1.414       .  A
C198       Br205   1.919       .  S
C199        C200   1.381       .  A
C200        C201   1.398       .  A
C200       Br207   1.907       .  S
C201        C202   1.459       .  A
C201       Br206   1.926       .  S
C202        C203   1.451       .  A
C203       Br204   1.909       .  S
C208        C209   1.405       .  A
C208        C213   1.401       .  A
C208       Br215   1.937       .  S
C209        C210   1.404       .  A
C210        C211   1.427       .  A
C210       Br217   1.943       .  S
C211        C212   1.464       .  A
C211       Br216   1.952       .  S
C212        C213   1.434       .  A
C213       Br214   1.932       .  S
C218        C219   1.421       .  A
C218        C223   1.417       .  A
C218       Br225   1.932       .  S
C219        C220   1.406       .  A
C220        C221   1.412       .  A
C220       Br227   1.929       .  S
C221        C222   1.455       .  A
C221       Br226   1.957       .  S
C222        C223   1.440       .  A
C223       Br224   1.937       .  S
C228        C229   1.427       .  A
C228        C233   1.426       .  A
C228       Br235   1.939       .  S
C229        C230   1.397       .  A
C230        C231   1.403       .  A
C230       Br237   1.944       .  S
C231        C232   1.436       .  A
C231       Br236   1.917       .  S
C232        C233   1.437       .  A
C233       Br234   1.956       .  S
O238        C246   1.267       .  A
O238       Co732   2.036       .  S
O239        C247   1.277       .  A
O239       Co496   2.047       .  S
O240        C248   1.241       .  A
O240      Co1208   1.935       .  S
O241        C249   1.267       .  A
O242        C248   1.272       .  A
O243        C249   1.291       .  A
O243       Co258   2.071       .  S
O244        C247   1.269       .  A
O244       Co972   1.995   1_455  S
O245        C246   1.241       .  A
O245       Co260   1.959       .  S
C246        C466   1.509       .  S
C247        C429   1.527       .  S
C248        C406   1.468       .  S
C249        C419   1.465       .  S
O250        C263   1.264       .  A
O251        C264   1.250       .  A
O251       Co259   1.951       .  S
O252        C265   1.282       .  A
O253        C266   1.261       .  A
O253      Co1209   2.022   1_456  S
O254        C266   1.244       .  A
O254       Co733   1.951       .  S
O255        C265   1.266       .  A
O255       Co495   1.971       .  S
O256        C263   1.301       .  A
O256       Co261   2.114   1_556  S
O257        C264   1.279       .  A
O257       Co971   2.079   1_556  S
Co258       O712   2.036   1_545  S
Co258       O492   1.972   1_545  S
Co258       O736   2.022   1_545  S
Co259       O476   2.047   1_556  S
Co259       O728   1.951       .  S
Co259       O973   2.026       .  S
Co260      O1188   1.935       .  S
Co260       O968   2.079       .  S
Co260       O262   2.013       .  S
Co261       O955   1.994       .  S
Co261      O1201   2.022   1_554  S
Co261       O499   2.034   1_544  S
O262       Co732   2.022       .  S
O262       Co970   2.026       .  S
O262       Co498   2.034       .  S
C263        C446   1.498       .  S
C264        C456   1.520       .  S
C265        C436   1.495       .  S
C266        C396   1.467       .  S
C267        C366   1.649       .  S
C267        C379   1.635       .  S
C267        C386   1.601       .  S
C267        C399   1.590       .  S
C268        C346   1.683       .  S
C268        C359   1.657       .  S
C268        C389   1.655       .  S
C268        C459   1.602       .  S
C269        C326   1.647       .  S
C269        C336   1.654       .  S
C269        C349   1.675       .  S
C269        C409   1.600       .  S
C270        C316   1.699       .  S
C270        C329   1.658       .  S
C270        C369   1.681       .  S
C270        C426   1.616       .  S
C271        C296   1.638       .  S
C271        C309   1.668       .  S
C271        C376   1.706       .  S
C271        C449   1.615       .  S
C272        C286   1.657       .  S
C272        C299   1.577       .  S
C272        C319   1.671       .  S
C272        C416   1.585       .  S
C273        C279   1.687       .  S
C273        C289   1.655       .  S
C273        C339   1.668       .  S
C273        C469   1.604       .  S
C274        C276   1.691       .  S
C274        C306   1.662       .  S
C274        C356   1.636       .  S
C274        C439   1.618       .  S
C275        C276   1.476       .  A
C275        C280   1.452       .  A
C275       Br282   1.968       .  S
C276        C277   1.456       .  A
C277        C278   1.470       .  A
C277       Br284   1.951       .  S
C278        C279   1.436       .  A
C278       Br283   1.952       .  S
C279        C280   1.414       .  A
C280       Br281   1.930       .  S
C285        C286   1.383       .  A
C285        C290   1.418       .  A
C285       Br292   1.884       .  S
C286        C287   1.465       .  A
C287        C288   1.467       .  A
C287       Br294   1.934       .  S
C288        C289   1.458       .  A
C288       Br293   1.932       .  S
C289        C290   1.409       .  A
C290       Br291   1.876       .  S
C295        C296   1.459       .  A
C295        C300   1.445       .  A
C295       Br302   1.954       .  S
C296        C297   1.448       .  A
C297        C298   1.382       .  A
C297       Br304   1.855       .  S
C298        C299   1.391       .  A
C298       Br303   1.942       .  S
C299        C300   1.429       .  A
C300       Br301   1.938       .  S
C305        C306   1.467       .  A
C305        C310   1.445       .  A
C305       Br312   1.930       .  S
C306        C307   1.452       .  A
C307        C308   1.449       .  A
C307       Br314   1.913       .  S
C308        C309   1.432       .  A
C308       Br313   1.928       .  S
C309        C310   1.418       .  A
C310       Br311   1.946       .  S
C315        C316   1.411       .  A
C315        C320   1.425       .  A
C315       Br322   1.946       .  S
C316        C317   1.494       .  A
C317        C318   1.487       .  A
C317       Br324   1.922       .  S
C318        C319   1.446       .  A
C318       Br323   1.936       .  S
C319        C320   1.436       .  A
C320       Br321   1.871       .  S
C325        C326   1.448       .  A
C325        C330   1.438       .  A
C325       Br332   1.916       .  S
C326        C327   1.437       .  A
C327        C328   1.445       .  A
C327       Br334   1.946       .  S
C328        C329   1.450       .  A
C328       Br333   1.909       .  S
C329        C330   1.434       .  A
C330       Br331   1.933       .  S
C335        C336   1.457       .  A
C335        C340   1.471       .  A
C335       Br342   1.931       .  S
C336        C337   1.420       .  A
C337        C338   1.410       .  A
C337       Br344   1.876       .  S
C338        C339   1.405       .  A
C338       Br343   1.933       .  S
C339        C340   1.470       .  A
C340       Br341   1.924       .  S
C345        C346   1.414       .  A
C345        C350   1.419       .  A
C345       Br352   1.917       .  S
C346        C347   1.452       .  A
C347        C348   1.485       .  A
C347       Br354   1.928       .  S
C348        C349   1.455       .  A
C348       Br353   1.952       .  S
C349        C350   1.440       .  A
C350       Br351   1.861       .  S
C355        C356   1.412       .  A
C355        C360   1.405       .  A
C355       Br362   1.915       .  S
C356        C357   1.455       .  A
C357        C358   1.466       .  A
C357       Br364   1.927       .  S
C358        C359   1.453       .  A
C358       Br363   1.933       .  S
C359        C360   1.438       .  A
C360       Br361   1.894       .  S
C365        C366   1.422       .  A
C365        C370   1.415       .  A
C365       Br372   1.971       .  S
C366        C367   1.431       .  A
C367        C368   1.463       .  A
C367       Br374   1.943       .  S
C368        C369   1.471       .  A
C368       Br373   1.946       .  S
C369        C370   1.447       .  A
C370       Br371   1.858       .  S
C375        C376   1.472       .  A
C375        C380   1.428       .  A
C375       Br382   1.857       .  S
C376        C377   1.468       .  A
C377        C378   1.458       .  A
C377       Br384   1.917       .  S
C378        C379   1.440       .  A
C378       Br383   1.956       .  S
C379        C380   1.393       .  A
C380       Br381   1.949       .  S
C385        C386   1.413       .  A
C385        C390   1.374       .  A
C385       Br392   1.881       .  S
C386        C387   1.458       .  A
C387        C388   1.459       .  A
C387       Br394   1.927       .  S
C388        C389   1.452       .  A
C388       Br393   1.937       .  S
C389        C390   1.393       .  A
C390       Br391   1.942       .  S
C395        C396   1.402       .  A
C395        C400   1.407       .  A
C395       Br402   1.936       .  S
C396        C397   1.386       .  A
C397        C398   1.404       .  A
C397       Br404   1.931       .  S
C398        C399   1.449       .  A
C398       Br403   1.924       .  S
C399        C400   1.454       .  A
C400       Br401   1.945       .  S
C405        C406   1.382       .  A
C405        C410   1.410       .  A
C405       Br412   1.934       .  S
C406        C407   1.393       .  A
C407        C408   1.406       .  A
C407       Br414   1.944       .  S
C408        C409   1.462       .  A
C408       Br413   1.946       .  S
C409        C410   1.455       .  A
C410       Br411   1.912       .  S
C415        C416   1.457       .  A
C415        C420   1.394       .  A
C415       Br422   1.945       .  S
C416        C417   1.439       .  A
C417        C418   1.413       .  A
C417       Br424   1.933       .  S
C418        C419   1.403       .  A
C418       Br423   1.930       .  S
C419        C420   1.388       .  A
C420       Br421   1.942       .  S
C425        C426   1.409       .  A
C425        C430   1.397       .  A
C425       Br432   1.923       .  S
C426        C427   1.465       .  A
C427        C428   1.441       .  A
C427       Br434   1.949       .  S
C428        C429   1.423       .  A
C428       Br433   1.933       .  S
C429        C430   1.409       .  A
C430       Br431   1.919       .  S
C435        C436   1.403       .  A
C435        C440   1.414       .  A
C435       Br442   1.919       .  S
C436        C437   1.381       .  A
C437        C438   1.398       .  A
C437       Br444   1.907       .  S
C438        C439   1.459       .  A
C438       Br443   1.926       .  S
C439        C440   1.451       .  A
C440       Br441   1.909       .  S
C445        C446   1.405       .  A
C445        C450   1.401       .  A
C445       Br452   1.937       .  S
C446        C447   1.404       .  A
C447        C448   1.427       .  A
C447       Br454   1.943       .  S
C448        C449   1.464       .  A
C448       Br453   1.952       .  S
C449        C450   1.434       .  A
C450       Br451   1.932       .  S
C455        C456   1.421       .  A
C455        C460   1.417       .  A
C455       Br462   1.932       .  S
C456        C457   1.406       .  A
C457        C458   1.412       .  A
C457       Br464   1.929       .  S
C458        C459   1.455       .  A
C458       Br463   1.957       .  S
C459        C460   1.440       .  A
C460       Br461   1.937       .  S
C465        C466   1.427       .  A
C465        C470   1.426       .  A
C465       Br472   1.939       .  S
C466        C467   1.397       .  A
C467        C468   1.403       .  A
C467       Br474   1.944       .  S
C468        C469   1.436       .  A
C468       Br473   1.917       .  S
C469        C470   1.437       .  A
C470       Br471   1.956       .  S
O475        C483   1.267       .  A
O476        C484   1.277       .  A
O477        C485   1.241       .  A
O477      Co1445   1.934       .  S
O478        C486   1.267       .  A
O478       Co735   1.890       .  S
O479        C485   1.272       .  A
O479       Co733   2.044   1_564  S
O480        C486   1.291       .  A
O480       Co495   2.071   1_554  S
O481        C484   1.269       .  A
O481      Co1683   1.994   1_455  S
O482        C483   1.241       .  A
O482       Co497   1.959       .  S
C483        C703   1.509       .  S
C484        C666   1.527       .  S
C485        C643   1.467       .  S
C486        C656   1.465       .  S
O487        C500   1.264       .  A
O487       Co732   1.884       .  S
O488        C501   1.250       .  A
O488       Co496   1.951   1_565  S
O489        C502   1.282       .  A
O489       Co734   2.042       .  S
O490        C503   1.261       .  A
O490      Co1446   2.022   1_455  S
O491        C503   1.244       .  A
O492        C502   1.266       .  A
O493        C500   1.301       .  A
O493       Co498   2.114       .  S
O494        C501   1.279       .  A
O494      Co1682   2.079       .  S
Co495       O724   1.884       .  S
Co496       O716   2.044   1_545  S
Co496      O1684   2.026   1_545  S
Co497      O1425   1.934       .  S
Co497       O726   2.042   1_554  S
Co497      O1679   2.079   1_554  S
Co497       O499   2.013   1_554  S
Co498       O715   1.890       .  S
Co498      O1666   1.995       .  S
Co498      O1438   2.022       .  S
O499      Co1681   2.026   1_565  S
C500        C683   1.498       .  S
C501        C693   1.520       .  S
C502        C673   1.495       .  S
C503        C633   1.467       .  S
C504        C603   1.649       .  S
C504        C616   1.635       .  S
C504        C623   1.601       .  S
C504        C636   1.590       .  S
C505        C583   1.683       .  S
C505        C596   1.657       .  S
C505        C626   1.655       .  S
C505        C696   1.602       .  S
C506        C563   1.647       .  S
C506        C573   1.654       .  S
C506        C586   1.675       .  S
C506        C646   1.600       .  S
C507        C553   1.699       .  S
C507        C566   1.658       .  S
C507        C606   1.681       .  S
C507        C663   1.616       .  S
C508        C533   1.638       .  S
C508        C546   1.668       .  S
C508        C613   1.706       .  S
C508        C686   1.615       .  S
C509        C523   1.657       .  S
C509        C536   1.577       .  S
C509        C556   1.671       .  S
C509        C653   1.585       .  S
C510        C516   1.687       .  S
C510        C526   1.655       .  S
C510        C576   1.668       .  S
C510        C706   1.604       .  S
C511        C513   1.691       .  S
C511        C543   1.662       .  S
C511        C593   1.636       .  S
C511        C676   1.618       .  S
C512        C513   1.476       .  A
C512        C517   1.452       .  A
C512       Br519   1.968       .  S
C513        C514   1.456       .  A
C514        C515   1.470       .  A
C514       Br521   1.951       .  S
C515        C516   1.436       .  A
C515       Br520   1.952       .  S
C516        C517   1.414       .  A
C517       Br518   1.930       .  S
C522        C523   1.383       .  A
C522        C527   1.418       .  A
C522       Br529   1.884       .  S
C523        C524   1.465       .  A
C524        C525   1.467       .  A
C524       Br531   1.934       .  S
C525        C526   1.458       .  A
C525       Br530   1.932       .  S
C526        C527   1.409       .  A
C527       Br528   1.876       .  S
C532        C533   1.459       .  A
C532        C537   1.445       .  A
C532       Br539   1.954       .  S
C533        C534   1.448       .  A
C534        C535   1.382       .  A
C534       Br541   1.855       .  S
C535        C536   1.391       .  A
C535       Br540   1.942       .  S
C536        C537   1.429       .  A
C537       Br538   1.938       .  S
C542        C543   1.467       .  A
C542        C547   1.445       .  A
C542       Br549   1.930       .  S
C543        C544   1.452       .  A
C544        C545   1.449       .  A
C544       Br551   1.913       .  S
C545        C546   1.432       .  A
C545       Br550   1.928       .  S
C546        C547   1.418       .  A
C547       Br548   1.946       .  S
C552        C553   1.411       .  A
C552        C557   1.425       .  A
C552       Br559   1.946       .  S
C553        C554   1.494       .  A
C554        C555   1.487       .  A
C554       Br561   1.922       .  S
C555        C556   1.446       .  A
C555       Br560   1.936       .  S
C556        C557   1.436       .  A
C557       Br558   1.871       .  S
C562        C563   1.448       .  A
C562        C567   1.438       .  A
C562       Br569   1.916       .  S
C563        C564   1.437       .  A
C564        C565   1.445       .  A
C564       Br571   1.946       .  S
C565        C566   1.450       .  A
C565       Br570   1.909       .  S
C566        C567   1.434       .  A
C567       Br568   1.933       .  S
C572        C573   1.457       .  A
C572        C577   1.471       .  A
C572       Br579   1.931       .  S
C573        C574   1.420       .  A
C574        C575   1.410       .  A
C574       Br581   1.876       .  S
C575        C576   1.405       .  A
C575       Br580   1.933       .  S
C576        C577   1.470       .  A
C577       Br578   1.924       .  S
C582        C583   1.414       .  A
C582        C587   1.419       .  A
C582       Br589   1.917       .  S
C583        C584   1.452       .  A
C584        C585   1.485       .  A
C584       Br591   1.928       .  S
C585        C586   1.455       .  A
C585       Br590   1.952       .  S
C586        C587   1.440       .  A
C587       Br588   1.861       .  S
C592        C593   1.412       .  A
C592        C597   1.405       .  A
C592       Br599   1.915       .  S
C593        C594   1.455       .  A
C594        C595   1.466       .  A
C594       Br601   1.927       .  S
C595        C596   1.453       .  A
C595       Br600   1.933       .  S
C596        C597   1.438       .  A
C597       Br598   1.894       .  S
C602        C603   1.422       .  A
C602        C607   1.415       .  A
C602       Br609   1.971       .  S
C603        C604   1.431       .  A
C604        C605   1.463       .  A
C604       Br611   1.943       .  S
C605        C606   1.471       .  A
C605       Br610   1.946       .  S
C606        C607   1.447       .  A
C607       Br608   1.858       .  S
C612        C613   1.472       .  A
C612        C617   1.428       .  A
C612       Br619   1.857       .  S
C613        C614   1.468       .  A
C614        C615   1.458       .  A
C614       Br621   1.917       .  S
C615        C616   1.440       .  A
C615       Br620   1.956       .  S
C616        C617   1.393       .  A
C617       Br618   1.949       .  S
C622        C623   1.413       .  A
C622        C627   1.374       .  A
C622       Br629   1.881       .  S
C623        C624   1.458       .  A
C624        C625   1.459       .  A
C624       Br631   1.927       .  S
C625        C626   1.452       .  A
C625       Br630   1.937       .  S
C626        C627   1.393       .  A
C627       Br628   1.942       .  S
C632        C633   1.402       .  A
C632        C637   1.407       .  A
C632       Br639   1.936       .  S
C633        C634   1.386       .  A
C634        C635   1.404       .  A
C634       Br641   1.931       .  S
C635        C636   1.449       .  A
C635       Br640   1.924       .  S
C636        C637   1.454       .  A
C637       Br638   1.945       .  S
C642        C643   1.382       .  A
C642        C647   1.410       .  A
C642       Br649   1.934       .  S
C643        C644   1.393       .  A
C644        C645   1.406       .  A
C644       Br651   1.944       .  S
C645        C646   1.462       .  A
C645       Br650   1.946       .  S
C646        C647   1.455       .  A
C647       Br648   1.912       .  S
C652        C653   1.457       .  A
C652        C657   1.394       .  A
C652       Br659   1.945       .  S
C653        C654   1.439       .  A
C654        C655   1.413       .  A
C654       Br661   1.933       .  S
C655        C656   1.403       .  A
C655       Br660   1.930       .  S
C656        C657   1.388       .  A
C657       Br658   1.942       .  S
C662        C663   1.409       .  A
C662        C667   1.397       .  A
C662       Br669   1.923       .  S
C663        C664   1.465       .  A
C664        C665   1.441       .  A
C664       Br671   1.949       .  S
C665        C666   1.423       .  A
C665       Br670   1.933       .  S
C666        C667   1.409       .  A
C667       Br668   1.919       .  S
C672        C673   1.403       .  A
C672        C677   1.414       .  A
C672       Br679   1.919       .  S
C673        C674   1.381       .  A
C674        C675   1.398       .  A
C674       Br681   1.907       .  S
C675        C676   1.459       .  A
C675       Br680   1.926       .  S
C676        C677   1.451       .  A
C677       Br678   1.909       .  S
C682        C683   1.405       .  A
C682        C687   1.401       .  A
C682       Br689   1.937       .  S
C683        C684   1.404       .  A
C684        C685   1.427       .  A
C684       Br691   1.943       .  S
C685        C686   1.464       .  A
C685       Br690   1.952       .  S
C686        C687   1.434       .  A
C687       Br688   1.932       .  S
C692        C693   1.421       .  A
C692        C697   1.417       .  A
C692       Br699   1.932       .  S
C693        C694   1.406       .  A
C694        C695   1.412       .  A
C694       Br701   1.929       .  S
C695        C696   1.455       .  A
C695       Br700   1.957       .  S
C696        C697   1.440       .  A
C697       Br698   1.937       .  S
C702        C703   1.427       .  A
C702        C707   1.426       .  A
C702       Br709   1.939       .  S
C703        C704   1.397       .  A
C704        C705   1.403       .  A
C704       Br711   1.944       .  S
C705        C706   1.436       .  A
C705       Br710   1.917       .  S
C706        C707   1.437       .  A
C707       Br708   1.956       .  S
O712        C720   1.267       .  A
O713        C721   1.277       .  A
O714        C722   1.241       .  A
O714      Co1682   1.935       .  S
O715        C723   1.267       .  A
O716        C722   1.272       .  A
O717        C723   1.291       .  A
O717       Co732   2.071       .  S
O718        C721   1.269       .  A
O718      Co1446   1.995   1_455  S
O719        C720   1.241       .  A
O719       Co734   1.959       .  S
C720        C940   1.509       .  S
C721        C903   1.527       .  S
C722        C880   1.468       .  S
C723        C893   1.465       .  S
O724        C737   1.264       .  A
O725        C738   1.250       .  A
O725       Co733   1.951   1_565  S
O726        C739   1.282       .  A
O727        C740   1.261       .  A
O727      Co1683   2.022   1_456  S
O728        C740   1.244       .  A
O729        C739   1.266       .  A
O730        C737   1.301       .  A
O730       Co735   2.114   1_556  S
O731        C738   1.279       .  A
O731      Co1445   2.079   1_556  S
Co733      O1447   2.026   1_545  S
Co734      O1662   1.935       .  S
Co734      O1442   2.079       .  S
Co734       O736   2.013       .  S
Co735      O1429   1.994       .  S
Co735      O1675   2.022   1_554  S
O736      Co1444   2.026   1_565  S
C737        C920   1.498       .  S
C738        C930   1.520       .  S
C739        C910   1.495       .  S
C740        C870   1.467       .  S
C741        C840   1.649       .  S
C741        C853   1.635       .  S
C741        C860   1.601       .  S
C741        C873   1.590       .  S
C742        C820   1.683       .  S
C742        C833   1.657       .  S
C742        C863   1.655       .  S
C742        C933   1.602       .  S
C743        C800   1.647       .  S
C743        C810   1.654       .  S
C743        C823   1.675       .  S
C743        C883   1.600       .  S
C744        C790   1.699       .  S
C744        C803   1.658       .  S
C744        C843   1.681       .  S
C744        C900   1.616       .  S
C745        C770   1.638       .  S
C745        C783   1.668       .  S
C745        C850   1.706       .  S
C745        C923   1.615       .  S
C746        C760   1.657       .  S
C746        C773   1.577       .  S
C746        C793   1.671       .  S
C746        C890   1.585       .  S
C747        C753   1.687       .  S
C747        C763   1.655       .  S
C747        C813   1.668       .  S
C747        C943   1.604       .  S
C748        C750   1.691       .  S
C748        C780   1.662       .  S
C748        C830   1.636       .  S
C748        C913   1.618       .  S
C749        C750   1.476       .  A
C749        C754   1.452       .  A
C749       Br756   1.968       .  S
C750        C751   1.456       .  A
C751        C752   1.470       .  A
C751       Br758   1.951       .  S
C752        C753   1.436       .  A
C752       Br757   1.952       .  S
C753        C754   1.414       .  A
C754       Br755   1.930       .  S
C759        C760   1.383       .  A
C759        C764   1.418       .  A
C759       Br766   1.884       .  S
C760        C761   1.465       .  A
C761        C762   1.467       .  A
C761       Br768   1.934       .  S
C762        C763   1.458       .  A
C762       Br767   1.932       .  S
C763        C764   1.409       .  A
C764       Br765   1.876       .  S
C769        C770   1.459       .  A
C769        C774   1.445       .  A
C769       Br776   1.954       .  S
C770        C771   1.448       .  A
C771        C772   1.382       .  A
C771       Br778   1.855       .  S
C772        C773   1.391       .  A
C772       Br777   1.942       .  S
C773        C774   1.429       .  A
C774       Br775   1.938       .  S
C779        C780   1.467       .  A
C779        C784   1.445       .  A
C779       Br786   1.930       .  S
C780        C781   1.452       .  A
C781        C782   1.449       .  A
C781       Br788   1.913       .  S
C782        C783   1.432       .  A
C782       Br787   1.928       .  S
C783        C784   1.418       .  A
C784       Br785   1.946       .  S
C789        C790   1.411       .  A
C789        C794   1.425       .  A
C789       Br796   1.946       .  S
C790        C791   1.494       .  A
C791        C792   1.487       .  A
C791       Br798   1.922       .  S
C792        C793   1.446       .  A
C792       Br797   1.936       .  S
C793        C794   1.436       .  A
C794       Br795   1.871       .  S
C799        C800   1.448       .  A
C799        C804   1.438       .  A
C799       Br806   1.916       .  S
C800        C801   1.437       .  A
C801        C802   1.445       .  A
C801       Br808   1.946       .  S
C802        C803   1.450       .  A
C802       Br807   1.909       .  S
C803        C804   1.434       .  A
C804       Br805   1.933       .  S
C809        C810   1.457       .  A
C809        C814   1.471       .  A
C809       Br816   1.931       .  S
C810        C811   1.420       .  A
C811        C812   1.410       .  A
C811       Br818   1.876       .  S
C812        C813   1.405       .  A
C812       Br817   1.933       .  S
C813        C814   1.470       .  A
C814       Br815   1.924       .  S
C819        C820   1.414       .  A
C819        C824   1.419       .  A
C819       Br826   1.917       .  S
C820        C821   1.452       .  A
C821        C822   1.485       .  A
C821       Br828   1.928       .  S
C822        C823   1.455       .  A
C822       Br827   1.952       .  S
C823        C824   1.440       .  A
C824       Br825   1.861       .  S
C829        C830   1.412       .  A
C829        C834   1.405       .  A
C829       Br836   1.915       .  S
C830        C831   1.455       .  A
C831        C832   1.466       .  A
C831       Br838   1.927       .  S
C832        C833   1.453       .  A
C832       Br837   1.933       .  S
C833        C834   1.438       .  A
C834       Br835   1.894       .  S
C839        C840   1.422       .  A
C839        C844   1.415       .  A
C839       Br846   1.971       .  S
C840        C841   1.431       .  A
C841        C842   1.463       .  A
C841       Br848   1.943       .  S
C842        C843   1.471       .  A
C842       Br847   1.946       .  S
C843        C844   1.447       .  A
C844       Br845   1.858       .  S
C849        C850   1.472       .  A
C849        C854   1.428       .  A
C849       Br856   1.857       .  S
C850        C851   1.468       .  A
C851        C852   1.458       .  A
C851       Br858   1.917       .  S
C852        C853   1.440       .  A
C852       Br857   1.956       .  S
C853        C854   1.393       .  A
C854       Br855   1.949       .  S
C859        C860   1.413       .  A
C859        C864   1.374       .  A
C859       Br866   1.881       .  S
C860        C861   1.458       .  A
C861        C862   1.459       .  A
C861       Br868   1.927       .  S
C862        C863   1.452       .  A
C862       Br867   1.937       .  S
C863        C864   1.393       .  A
C864       Br865   1.942       .  S
C869        C870   1.402       .  A
C869        C874   1.407       .  A
C869       Br876   1.936       .  S
C870        C871   1.386       .  A
C871        C872   1.404       .  A
C871       Br878   1.931       .  S
C872        C873   1.449       .  A
C872       Br877   1.924       .  S
C873        C874   1.454       .  A
C874       Br875   1.945       .  S
C879        C880   1.382       .  A
C879        C884   1.410       .  A
C879       Br886   1.934       .  S
C880        C881   1.393       .  A
C881        C882   1.406       .  A
C881       Br888   1.944       .  S
C882        C883   1.462       .  A
C882       Br887   1.946       .  S
C883        C884   1.455       .  A
C884       Br885   1.912       .  S
C889        C890   1.457       .  A
C889        C894   1.394       .  A
C889       Br896   1.945       .  S
C890        C891   1.439       .  A
C891        C892   1.413       .  A
C891       Br898   1.933       .  S
C892        C893   1.403       .  A
C892       Br897   1.930       .  S
C893        C894   1.388       .  A
C894       Br895   1.942       .  S
C899        C900   1.409       .  A
C899        C904   1.397       .  A
C899       Br906   1.923       .  S
C900        C901   1.465       .  A
C901        C902   1.441       .  A
C901       Br908   1.949       .  S
C902        C903   1.423       .  A
C902       Br907   1.933       .  S
C903        C904   1.409       .  A
C904       Br905   1.919       .  S
C909        C910   1.403       .  A
C909        C914   1.414       .  A
C909       Br916   1.919       .  S
C910        C911   1.381       .  A
C911        C912   1.398       .  A
C911       Br918   1.907       .  S
C912        C913   1.459       .  A
C912       Br917   1.926       .  S
C913        C914   1.451       .  A
C914       Br915   1.909       .  S
C919        C920   1.405       .  A
C919        C924   1.401       .  A
C919       Br926   1.937       .  S
C920        C921   1.404       .  A
C921        C922   1.427       .  A
C921       Br928   1.943       .  S
C922        C923   1.464       .  A
C922       Br927   1.952       .  S
C923        C924   1.434       .  A
C924       Br925   1.932       .  S
C929        C930   1.421       .  A
C929        C934   1.417       .  A
C929       Br936   1.932       .  S
C930        C931   1.406       .  A
C931        C932   1.412       .  A
C931       Br938   1.929       .  S
C932        C933   1.455       .  A
C932       Br937   1.957       .  S
C933        C934   1.440       .  A
C934       Br935   1.937       .  S
C939        C940   1.427       .  A
C939        C944   1.426       .  A
C939       Br946   1.939       .  S
C940        C941   1.397       .  A
C941        C942   1.403       .  A
C941       Br948   1.944       .  S
C942        C943   1.436       .  A
C942       Br947   1.917       .  S
C943        C944   1.437       .  A
C944       Br945   1.956       .  S
O949        C957   1.267       .  A
O949      Co1443   2.036   1_554  S
O950        C958   1.277       .  A
O950      Co1681   2.047   1_554  S
O951        C959   1.241       .  A
O952        C960   1.267       .  A
O952      Co1209   1.890       .  S
O953        C959   1.272       .  A
O953      Co1207   2.044   1_554  S
O954        C960   1.291       .  A
O954       Co969   2.071   1_554  S
O955        C958   1.269       .  A
O956        C957   1.241       .  A
O956       Co971   1.959   1_655  S
C957       C1177   1.509       .  S
C958       C1140   1.527       .  S
C959       C1117   1.467       .  S
C960       C1130   1.465       .  S
O961        C974   1.264       .  A
O961      Co1206   1.884       .  S
O962        C975   1.250       .  A
O962       Co970   1.951       .  S
O963        C976   1.282       .  A
O963      Co1208   2.042   1_655  S
O964        C977   1.261       .  A
O965        C977   1.244       .  A
O965      Co1444   1.951       .  S
O966        C976   1.266       .  A
O966      Co1680   1.972       .  S
O967        C974   1.301       .  A
O967       Co972   2.114       .  S
O968        C975   1.279       .  A
Co969      O1423   2.036   1_546  S
Co969      O1198   1.884       .  S
Co969      O1677   1.972   1_545  S
Co969      O1447   2.022   1_645  S
Co970      O1661   2.047       .  S
Co970      O1190   2.044       .  S
Co970      O1439   1.951       .  S
Co971      O1200   2.042   1_454  S
Co971       O973   2.013   1_554  S
Co972      O1189   1.890       .  S
Co972      O1684   2.034   1_645  S
O973      Co1443   2.022   1_455  S
O973      Co1683   2.034   1_456  S
C974       C1157   1.498       .  S
C975       C1167   1.520       .  S
C976       C1147   1.495       .  S
C977       C1107   1.467       .  S
C978       C1077   1.649       .  S
C978       C1090   1.635       .  S
C978       C1097   1.601       .  S
C978       C1110   1.590       .  S
C979       C1057   1.683       .  S
C979       C1070   1.657       .  S
C979       C1100   1.655       .  S
C979       C1170   1.602       .  S
C980       C1037   1.647       .  S
C980       C1047   1.654       .  S
C980       C1060   1.675       .  S
C980       C1120   1.600       .  S
C981       C1027   1.699       .  S
C981       C1040   1.658       .  S
C981       C1080   1.681       .  S
C981       C1137   1.616       .  S
C982       C1007   1.638       .  S
C982       C1020   1.668       .  S
C982       C1087   1.706       .  S
C982       C1160   1.615       .  S
C983        C997   1.657       .  S
C983       C1010   1.577       .  S
C983       C1030   1.671       .  S
C983       C1127   1.585       .  S
C984        C990   1.687       .  S
C984       C1000   1.655       .  S
C984       C1050   1.668       .  S
C984       C1180   1.604       .  S
C985        C987   1.691       .  S
C985       C1017   1.662       .  S
C985       C1067   1.636       .  S
C985       C1150   1.618       .  S
C986        C987   1.476       .  A
C986        C991   1.452       .  A
C986       Br993   1.968       .  S
C987        C988   1.456       .  A
C988        C989   1.470       .  A
C988       Br995   1.951       .  S
C989        C990   1.436       .  A
C989       Br994   1.952       .  S
C990        C991   1.414       .  A
C991       Br992   1.930       .  S
C996        C997   1.383       .  A
C996       C1001   1.418       .  A
C996      Br1003   1.884       .  S
C997        C998   1.465       .  A
C998        C999   1.467       .  A
C998      Br1005   1.934       .  S
C999       C1000   1.458       .  A
C999      Br1004   1.932       .  S
C1000      C1001   1.409       .  A
C1001     Br1002   1.876       .  S
C1006      C1007   1.459       .  A
C1006      C1011   1.445       .  A
C1006     Br1013   1.954       .  S
C1007      C1008   1.448       .  A
C1008      C1009   1.382       .  A
C1008     Br1015   1.855       .  S
C1009      C1010   1.391       .  A
C1009     Br1014   1.942       .  S
C1010      C1011   1.429       .  A
C1011     Br1012   1.938       .  S
C1016      C1017   1.467       .  A
C1016      C1021   1.445       .  A
C1016     Br1023   1.930       .  S
C1017      C1018   1.452       .  A
C1018      C1019   1.449       .  A
C1018     Br1025   1.913       .  S
C1019      C1020   1.432       .  A
C1019     Br1024   1.928       .  S
C1020      C1021   1.418       .  A
C1021     Br1022   1.946       .  S
C1026      C1027   1.411       .  A
C1026      C1031   1.425       .  A
C1026     Br1033   1.946       .  S
C1027      C1028   1.494       .  A
C1028      C1029   1.487       .  A
C1028     Br1035   1.922       .  S
C1029      C1030   1.446       .  A
C1029     Br1034   1.936       .  S
C1030      C1031   1.436       .  A
C1031     Br1032   1.871       .  S
C1036      C1037   1.448       .  A
C1036      C1041   1.438       .  A
C1036     Br1043   1.916       .  S
C1037      C1038   1.437       .  A
C1038      C1039   1.445       .  A
C1038     Br1045   1.946       .  S
C1039      C1040   1.450       .  A
C1039     Br1044   1.909       .  S
C1040      C1041   1.434       .  A
C1041     Br1042   1.933       .  S
C1046      C1047   1.457       .  A
C1046      C1051   1.471       .  A
C1046     Br1053   1.931       .  S
C1047      C1048   1.420       .  A
C1048      C1049   1.410       .  A
C1048     Br1055   1.876       .  S
C1049      C1050   1.405       .  A
C1049     Br1054   1.933       .  S
C1050      C1051   1.470       .  A
C1051     Br1052   1.924       .  S
C1056      C1057   1.414       .  A
C1056      C1061   1.419       .  A
C1056     Br1063   1.917       .  S
C1057      C1058   1.452       .  A
C1058      C1059   1.485       .  A
C1058     Br1065   1.928       .  S
C1059      C1060   1.455       .  A
C1059     Br1064   1.952       .  S
C1060      C1061   1.440       .  A
C1061     Br1062   1.861       .  S
C1066      C1067   1.412       .  A
C1066      C1071   1.405       .  A
C1066     Br1073   1.915       .  S
C1067      C1068   1.455       .  A
C1068      C1069   1.466       .  A
C1068     Br1075   1.927       .  S
C1069      C1070   1.453       .  A
C1069     Br1074   1.933       .  S
C1070      C1071   1.438       .  A
C1071     Br1072   1.894       .  S
C1076      C1077   1.422       .  A
C1076      C1081   1.415       .  A
C1076     Br1083   1.971       .  S
C1077      C1078   1.431       .  A
C1078      C1079   1.463       .  A
C1078     Br1085   1.943       .  S
C1079      C1080   1.471       .  A
C1079     Br1084   1.946       .  S
C1080      C1081   1.447       .  A
C1081     Br1082   1.858       .  S
C1086      C1087   1.472       .  A
C1086      C1091   1.428       .  A
C1086     Br1093   1.857       .  S
C1087      C1088   1.468       .  A
C1088      C1089   1.458       .  A
C1088     Br1095   1.917       .  S
C1089      C1090   1.440       .  A
C1089     Br1094   1.956       .  S
C1090      C1091   1.393       .  A
C1091     Br1092   1.949       .  S
C1096      C1097   1.413       .  A
C1096      C1101   1.374       .  A
C1096     Br1103   1.881       .  S
C1097      C1098   1.458       .  A
C1098      C1099   1.459       .  A
C1098     Br1105   1.927       .  S
C1099      C1100   1.452       .  A
C1099     Br1104   1.937       .  S
C1100      C1101   1.393       .  A
C1101     Br1102   1.942       .  S
C1106      C1107   1.402       .  A
C1106      C1111   1.407       .  A
C1106     Br1113   1.936       .  S
C1107      C1108   1.386       .  A
C1108      C1109   1.404       .  A
C1108     Br1115   1.931       .  S
C1109      C1110   1.449       .  A
C1109     Br1114   1.924       .  S
C1110      C1111   1.454       .  A
C1111     Br1112   1.945       .  S
C1116      C1117   1.382       .  A
C1116      C1121   1.410       .  A
C1116     Br1123   1.934       .  S
C1117      C1118   1.393       .  A
C1118      C1119   1.406       .  A
C1118     Br1125   1.944       .  S
C1119      C1120   1.462       .  A
C1119     Br1124   1.946       .  S
C1120      C1121   1.455       .  A
C1121     Br1122   1.912       .  S
C1126      C1127   1.457       .  A
C1126      C1131   1.394       .  A
C1126     Br1133   1.945       .  S
C1127      C1128   1.439       .  A
C1128      C1129   1.413       .  A
C1128     Br1135   1.933       .  S
C1129      C1130   1.403       .  A
C1129     Br1134   1.930       .  S
C1130      C1131   1.388       .  A
C1131     Br1132   1.942       .  S
C1136      C1137   1.409       .  A
C1136      C1141   1.397       .  A
C1136     Br1143   1.923       .  S
C1137      C1138   1.465       .  A
C1138      C1139   1.441       .  A
C1138     Br1145   1.949       .  S
C1139      C1140   1.423       .  A
C1139     Br1144   1.933       .  S
C1140      C1141   1.409       .  A
C1141     Br1142   1.919       .  S
C1146      C1147   1.403       .  A
C1146      C1151   1.414       .  A
C1146     Br1153   1.919       .  S
C1147      C1148   1.381       .  A
C1148      C1149   1.398       .  A
C1148     Br1155   1.907       .  S
C1149      C1150   1.459       .  A
C1149     Br1154   1.926       .  S
C1150      C1151   1.451       .  A
C1151     Br1152   1.909       .  S
C1156      C1157   1.405       .  A
C1156      C1161   1.401       .  A
C1156     Br1163   1.937       .  S
C1157      C1158   1.404       .  A
C1158      C1159   1.427       .  A
C1158     Br1165   1.943       .  S
C1159      C1160   1.464       .  A
C1159     Br1164   1.952       .  S
C1160      C1161   1.434       .  A
C1161     Br1162   1.932       .  S
C1166      C1167   1.421       .  A
C1166      C1171   1.417       .  A
C1166     Br1173   1.932       .  S
C1167      C1168   1.406       .  A
C1168      C1169   1.412       .  A
C1168     Br1175   1.929       .  S
C1169      C1170   1.455       .  A
C1169     Br1174   1.957       .  S
C1170      C1171   1.440       .  A
C1171     Br1172   1.937       .  S
C1176      C1177   1.427       .  A
C1176      C1181   1.426       .  A
C1176     Br1183   1.939       .  S
C1177      C1178   1.397       .  A
C1178      C1179   1.403       .  A
C1178     Br1185   1.944       .  S
C1179      C1180   1.436       .  A
C1179     Br1184   1.917       .  S
C1180      C1181   1.437       .  A
C1181     Br1182   1.956       .  S
O1186      C1194   1.267       .  A
O1186     Co1680   2.036       .  S
O1187      C1195   1.277       .  A
O1187     Co1444   2.047       .  S
O1188      C1196   1.241       .  A
O1189      C1197   1.267       .  A
O1190      C1196   1.272       .  A
O1191      C1197   1.291       .  A
O1191     Co1206   2.071       .  S
O1192      C1195   1.269       .  A
O1193      C1194   1.241       .  A
O1193     Co1208   1.959   1_655  S
C1194      C1414   1.509       .  S
C1195      C1377   1.527       .  S
C1196      C1354   1.468       .  S
C1197      C1367   1.465       .  S
O1198      C1211   1.264       .  A
O1199      C1212   1.250       .  A
O1199     Co1207   1.951       .  S
O1200      C1213   1.282       .  A
O1201      C1214   1.261       .  A
O1202      C1214   1.244       .  A
O1202     Co1681   1.951       .  S
O1203      C1213   1.266       .  A
O1203     Co1443   1.971       .  S
O1204      C1211   1.301       .  A
O1204     Co1209   2.114   1_556  S
O1205      C1212   1.279       .  A
Co1206     O1660   2.036   1_545  S
Co1206     O1440   1.972   1_545  S
Co1206     O1684   2.022   1_645  S
Co1207     O1424   2.047   1_556  S
Co1207     O1676   1.951       .  S
Co1208     O1210   2.013       .  S
Co1209     O1447   2.034   1_644  S
O1210     Co1680   2.022   1_455  S
O1210     Co1446   2.034   1_455  S
C1211      C1394   1.498       .  S
C1212      C1404   1.520       .  S
C1213      C1384   1.495       .  S
C1214      C1344   1.467       .  S
C1215      C1314   1.649       .  S
C1215      C1327   1.635       .  S
C1215      C1334   1.601       .  S
C1215      C1347   1.590       .  S
C1216      C1294   1.683       .  S
C1216      C1307   1.657       .  S
C1216      C1337   1.655       .  S
C1216      C1407   1.602       .  S
C1217      C1274   1.647       .  S
C1217      C1284   1.654       .  S
C1217      C1297   1.675       .  S
C1217      C1357   1.600       .  S
C1218      C1264   1.699       .  S
C1218      C1277   1.658       .  S
C1218      C1317   1.681       .  S
C1218      C1374   1.616       .  S
C1219      C1244   1.638       .  S
C1219      C1257   1.668       .  S
C1219      C1324   1.706       .  S
C1219      C1397   1.615       .  S
C1220      C1234   1.657       .  S
C1220      C1247   1.577       .  S
C1220      C1267   1.671       .  S
C1220      C1364   1.585       .  S
C1221      C1227   1.687       .  S
C1221      C1237   1.655       .  S
C1221      C1287   1.668       .  S
C1221      C1417   1.604       .  S
C1222      C1224   1.691       .  S
C1222      C1254   1.662       .  S
C1222      C1304   1.636       .  S
C1222      C1387   1.618       .  S
C1223      C1224   1.476       .  A
C1223      C1228   1.452       .  A
C1223     Br1230   1.968       .  S
C1224      C1225   1.456       .  A
C1225      C1226   1.470       .  A
C1225     Br1232   1.951       .  S
C1226      C1227   1.436       .  A
C1226     Br1231   1.952       .  S
C1227      C1228   1.414       .  A
C1228     Br1229   1.930       .  S
C1233      C1234   1.383       .  A
C1233      C1238   1.418       .  A
C1233     Br1240   1.884       .  S
C1234      C1235   1.465       .  A
C1235      C1236   1.467       .  A
C1235     Br1242   1.934       .  S
C1236      C1237   1.458       .  A
C1236     Br1241   1.932       .  S
C1237      C1238   1.409       .  A
C1238     Br1239   1.876       .  S
C1243      C1244   1.459       .  A
C1243      C1248   1.445       .  A
C1243     Br1250   1.954       .  S
C1244      C1245   1.448       .  A
C1245      C1246   1.382       .  A
C1245     Br1252   1.855       .  S
C1246      C1247   1.391       .  A
C1246     Br1251   1.942       .  S
C1247      C1248   1.429       .  A
C1248     Br1249   1.938       .  S
C1253      C1254   1.467       .  A
C1253      C1258   1.445       .  A
C1253     Br1260   1.930       .  S
C1254      C1255   1.452       .  A
C1255      C1256   1.449       .  A
C1255     Br1262   1.913       .  S
C1256      C1257   1.432       .  A
C1256     Br1261   1.928       .  S
C1257      C1258   1.418       .  A
C1258     Br1259   1.946       .  S
C1263      C1264   1.411       .  A
C1263      C1268   1.425       .  A
C1263     Br1270   1.946       .  S
C1264      C1265   1.494       .  A
C1265      C1266   1.487       .  A
C1265     Br1272   1.922       .  S
C1266      C1267   1.446       .  A
C1266     Br1271   1.936       .  S
C1267      C1268   1.436       .  A
C1268     Br1269   1.871       .  S
C1273      C1274   1.448       .  A
C1273      C1278   1.438       .  A
C1273     Br1280   1.916       .  S
C1274      C1275   1.437       .  A
C1275      C1276   1.445       .  A
C1275     Br1282   1.946       .  S
C1276      C1277   1.450       .  A
C1276     Br1281   1.909       .  S
C1277      C1278   1.434       .  A
C1278     Br1279   1.933       .  S
C1283      C1284   1.457       .  A
C1283      C1288   1.471       .  A
C1283     Br1290   1.931       .  S
C1284      C1285   1.420       .  A
C1285      C1286   1.410       .  A
C1285     Br1292   1.876       .  S
C1286      C1287   1.405       .  A
C1286     Br1291   1.933       .  S
C1287      C1288   1.470       .  A
C1288     Br1289   1.924       .  S
C1293      C1294   1.414       .  A
C1293      C1298   1.419       .  A
C1293     Br1300   1.917       .  S
C1294      C1295   1.452       .  A
C1295      C1296   1.485       .  A
C1295     Br1302   1.928       .  S
C1296      C1297   1.455       .  A
C1296     Br1301   1.952       .  S
C1297      C1298   1.440       .  A
C1298     Br1299   1.861       .  S
C1303      C1304   1.412       .  A
C1303      C1308   1.405       .  A
C1303     Br1310   1.915       .  S
C1304      C1305   1.455       .  A
C1305      C1306   1.466       .  A
C1305     Br1312   1.927       .  S
C1306      C1307   1.453       .  A
C1306     Br1311   1.933       .  S
C1307      C1308   1.438       .  A
C1308     Br1309   1.894       .  S
C1313      C1314   1.422       .  A
C1313      C1318   1.415       .  A
C1313     Br1320   1.971       .  S
C1314      C1315   1.431       .  A
C1315      C1316   1.463       .  A
C1315     Br1322   1.943       .  S
C1316      C1317   1.471       .  A
C1316     Br1321   1.946       .  S
C1317      C1318   1.447       .  A
C1318     Br1319   1.858       .  S
C1323      C1324   1.472       .  A
C1323      C1328   1.428       .  A
C1323     Br1330   1.857       .  S
C1324      C1325   1.468       .  A
C1325      C1326   1.458       .  A
C1325     Br1332   1.917       .  S
C1326      C1327   1.440       .  A
C1326     Br1331   1.956       .  S
C1327      C1328   1.393       .  A
C1328     Br1329   1.949       .  S
C1333      C1334   1.413       .  A
C1333      C1338   1.374       .  A
C1333     Br1340   1.881       .  S
C1334      C1335   1.458       .  A
C1335      C1336   1.459       .  A
C1335     Br1342   1.927       .  S
C1336      C1337   1.452       .  A
C1336     Br1341   1.937       .  S
C1337      C1338   1.393       .  A
C1338     Br1339   1.942       .  S
C1343      C1344   1.402       .  A
C1343      C1348   1.407       .  A
C1343     Br1350   1.936       .  S
C1344      C1345   1.386       .  A
C1345      C1346   1.404       .  A
C1345     Br1352   1.931       .  S
C1346      C1347   1.449       .  A
C1346     Br1351   1.924       .  S
C1347      C1348   1.454       .  A
C1348     Br1349   1.945       .  S
C1353      C1354   1.382       .  A
C1353      C1358   1.410       .  A
C1353     Br1360   1.934       .  S
C1354      C1355   1.393       .  A
C1355      C1356   1.406       .  A
C1355     Br1362   1.944       .  S
C1356      C1357   1.462       .  A
C1356     Br1361   1.946       .  S
C1357      C1358   1.455       .  A
C1358     Br1359   1.912       .  S
C1363      C1364   1.457       .  A
C1363      C1368   1.394       .  A
C1363     Br1370   1.945       .  S
C1364      C1365   1.439       .  A
C1365      C1366   1.413       .  A
C1365     Br1372   1.933       .  S
C1366      C1367   1.403       .  A
C1366     Br1371   1.930       .  S
C1367      C1368   1.388       .  A
C1368     Br1369   1.942       .  S
C1373      C1374   1.409       .  A
C1373      C1378   1.397       .  A
C1373     Br1380   1.923       .  S
C1374      C1375   1.465       .  A
C1375      C1376   1.441       .  A
C1375     Br1382   1.949       .  S
C1376      C1377   1.423       .  A
C1376     Br1381   1.933       .  S
C1377      C1378   1.409       .  A
C1378     Br1379   1.919       .  S
C1383      C1384   1.403       .  A
C1383      C1388   1.414       .  A
C1383     Br1390   1.919       .  S
C1384      C1385   1.381       .  A
C1385      C1386   1.398       .  A
C1385     Br1392   1.907       .  S
C1386      C1387   1.459       .  A
C1386     Br1391   1.926       .  S
C1387      C1388   1.451       .  A
C1388     Br1389   1.909       .  S
C1393      C1394   1.405       .  A
C1393      C1398   1.401       .  A
C1393     Br1400   1.937       .  S
C1394      C1395   1.404       .  A
C1395      C1396   1.427       .  A
C1395     Br1402   1.943       .  S
C1396      C1397   1.464       .  A
C1396     Br1401   1.952       .  S
C1397      C1398   1.434       .  A
C1398     Br1399   1.932       .  S
C1403      C1404   1.421       .  A
C1403      C1408   1.417       .  A
C1403     Br1410   1.932       .  S
C1404      C1405   1.406       .  A
C1405      C1406   1.412       .  A
C1405     Br1412   1.929       .  S
C1406      C1407   1.455       .  A
C1406     Br1411   1.957       .  S
C1407      C1408   1.440       .  A
C1408     Br1409   1.937       .  S
C1413      C1414   1.427       .  A
C1413      C1418   1.426       .  A
C1413     Br1420   1.939       .  S
C1414      C1415   1.397       .  A
C1415      C1416   1.403       .  A
C1415     Br1422   1.944       .  S
C1416      C1417   1.436       .  A
C1416     Br1421   1.917       .  S
C1417      C1418   1.437       .  A
C1418     Br1419   1.956       .  S
O1423      C1431   1.267       .  A
O1424      C1432   1.277       .  A
O1425      C1433   1.241       .  A
O1426      C1434   1.267       .  A
O1426     Co1683   1.890       .  S
O1427      C1433   1.272       .  A
O1427     Co1681   2.044   1_564  S
O1428      C1434   1.291       .  A
O1428     Co1443   2.071   1_554  S
O1429      C1432   1.269       .  A
O1430      C1431   1.241       .  A
O1430     Co1445   1.959   1_655  S
C1431      C1651   1.509       .  S
C1432      C1614   1.527       .  S
C1433      C1591   1.467       .  S
C1434      C1604   1.465       .  S
O1435      C1448   1.264       .  A
O1435     Co1680   1.884       .  S
O1436      C1449   1.250       .  A
O1436     Co1444   1.951   1_565  S
O1437      C1450   1.282       .  A
O1437     Co1682   2.042   1_655  S
O1438      C1451   1.261       .  A
O1439      C1451   1.244       .  A
O1440      C1450   1.266       .  A
O1441      C1448   1.301       .  A
O1441     Co1446   2.114       .  S
O1442      C1449   1.279       .  A
Co1443     O1672   1.884       .  S
Co1444     O1664   2.044   1_545  S
Co1445     O1674   2.042   1_454  S
Co1445     O1447   2.013   1_554  S
Co1446     O1663   1.890       .  S
C1448      C1631   1.498       .  S
C1449      C1641   1.520       .  S
C1450      C1621   1.495       .  S
C1451      C1581   1.467       .  S
C1452      C1551   1.649       .  S
C1452      C1564   1.635       .  S
C1452      C1571   1.601       .  S
C1452      C1584   1.590       .  S
C1453      C1531   1.683       .  S
C1453      C1544   1.657       .  S
C1453      C1574   1.655       .  S
C1453      C1644   1.602       .  S
C1454      C1511   1.647       .  S
C1454      C1521   1.654       .  S
C1454      C1534   1.675       .  S
C1454      C1594   1.600       .  S
C1455      C1501   1.699       .  S
C1455      C1514   1.658       .  S
C1455      C1554   1.681       .  S
C1455      C1611   1.616       .  S
C1456      C1481   1.638       .  S
C1456      C1494   1.668       .  S
C1456      C1561   1.706       .  S
C1456      C1634   1.615       .  S
C1457      C1471   1.657       .  S
C1457      C1484   1.577       .  S
C1457      C1504   1.671       .  S
C1457      C1601   1.585       .  S
C1458      C1464   1.687       .  S
C1458      C1474   1.655       .  S
C1458      C1524   1.668       .  S
C1458      C1654   1.604       .  S
C1459      C1461   1.691       .  S
C1459      C1491   1.662       .  S
C1459      C1541   1.636       .  S
C1459      C1624   1.618       .  S
C1460      C1461   1.476       .  A
C1460      C1465   1.452       .  A
C1460     Br1467   1.968       .  S
C1461      C1462   1.456       .  A
C1462      C1463   1.470       .  A
C1462     Br1469   1.951       .  S
C1463      C1464   1.436       .  A
C1463     Br1468   1.952       .  S
C1464      C1465   1.414       .  A
C1465     Br1466   1.930       .  S
C1470      C1471   1.383       .  A
C1470      C1475   1.418       .  A
C1470     Br1477   1.884       .  S
C1471      C1472   1.465       .  A
C1472      C1473   1.467       .  A
C1472     Br1479   1.934       .  S
C1473      C1474   1.458       .  A
C1473     Br1478   1.932       .  S
C1474      C1475   1.409       .  A
C1475     Br1476   1.876       .  S
C1480      C1481   1.459       .  A
C1480      C1485   1.445       .  A
C1480     Br1487   1.954       .  S
C1481      C1482   1.448       .  A
C1482      C1483   1.382       .  A
C1482     Br1489   1.855       .  S
C1483      C1484   1.391       .  A
C1483     Br1488   1.942       .  S
C1484      C1485   1.429       .  A
C1485     Br1486   1.938       .  S
C1490      C1491   1.467       .  A
C1490      C1495   1.445       .  A
C1490     Br1497   1.930       .  S
C1491      C1492   1.452       .  A
C1492      C1493   1.449       .  A
C1492     Br1499   1.913       .  S
C1493      C1494   1.432       .  A
C1493     Br1498   1.928       .  S
C1494      C1495   1.418       .  A
C1495     Br1496   1.946       .  S
C1500      C1501   1.411       .  A
C1500      C1505   1.425       .  A
C1500     Br1507   1.946       .  S
C1501      C1502   1.494       .  A
C1502      C1503   1.487       .  A
C1502     Br1509   1.922       .  S
C1503      C1504   1.446       .  A
C1503     Br1508   1.936       .  S
C1504      C1505   1.436       .  A
C1505     Br1506   1.871       .  S
C1510      C1511   1.448       .  A
C1510      C1515   1.438       .  A
C1510     Br1517   1.916       .  S
C1511      C1512   1.437       .  A
C1512      C1513   1.445       .  A
C1512     Br1519   1.946       .  S
C1513      C1514   1.450       .  A
C1513     Br1518   1.909       .  S
C1514      C1515   1.434       .  A
C1515     Br1516   1.933       .  S
C1520      C1521   1.457       .  A
C1520      C1525   1.471       .  A
C1520     Br1527   1.931       .  S
C1521      C1522   1.420       .  A
C1522      C1523   1.410       .  A
C1522     Br1529   1.876       .  S
C1523      C1524   1.405       .  A
C1523     Br1528   1.933       .  S
C1524      C1525   1.470       .  A
C1525     Br1526   1.924       .  S
C1530      C1531   1.414       .  A
C1530      C1535   1.419       .  A
C1530     Br1537   1.917       .  S
C1531      C1532   1.452       .  A
C1532      C1533   1.485       .  A
C1532     Br1539   1.928       .  S
C1533      C1534   1.455       .  A
C1533     Br1538   1.952       .  S
C1534      C1535   1.440       .  A
C1535     Br1536   1.861       .  S
C1540      C1541   1.412       .  A
C1540      C1545   1.405       .  A
C1540     Br1547   1.915       .  S
C1541      C1542   1.455       .  A
C1542      C1543   1.466       .  A
C1542     Br1549   1.927       .  S
C1543      C1544   1.453       .  A
C1543     Br1548   1.933       .  S
C1544      C1545   1.438       .  A
C1545     Br1546   1.894       .  S
C1550      C1551   1.422       .  A
C1550      C1555   1.415       .  A
C1550     Br1557   1.971       .  S
C1551      C1552   1.431       .  A
C1552      C1553   1.463       .  A
C1552     Br1559   1.943       .  S
C1553      C1554   1.471       .  A
C1553     Br1558   1.946       .  S
C1554      C1555   1.447       .  A
C1555     Br1556   1.858       .  S
C1560      C1561   1.472       .  A
C1560      C1565   1.428       .  A
C1560     Br1567   1.857       .  S
C1561      C1562   1.468       .  A
C1562      C1563   1.458       .  A
C1562     Br1569   1.917       .  S
C1563      C1564   1.440       .  A
C1563     Br1568   1.956       .  S
C1564      C1565   1.393       .  A
C1565     Br1566   1.949       .  S
C1570      C1571   1.413       .  A
C1570      C1575   1.374       .  A
C1570     Br1577   1.881       .  S
C1571      C1572   1.458       .  A
C1572      C1573   1.459       .  A
C1572     Br1579   1.927       .  S
C1573      C1574   1.452       .  A
C1573     Br1578   1.937       .  S
C1574      C1575   1.393       .  A
C1575     Br1576   1.942       .  S
C1580      C1581   1.402       .  A
C1580      C1585   1.407       .  A
C1580     Br1587   1.936       .  S
C1581      C1582   1.386       .  A
C1582      C1583   1.404       .  A
C1582     Br1589   1.931       .  S
C1583      C1584   1.449       .  A
C1583     Br1588   1.924       .  S
C1584      C1585   1.454       .  A
C1585     Br1586   1.945       .  S
C1590      C1591   1.382       .  A
C1590      C1595   1.410       .  A
C1590     Br1597   1.934       .  S
C1591      C1592   1.393       .  A
C1592      C1593   1.406       .  A
C1592     Br1599   1.944       .  S
C1593      C1594   1.462       .  A
C1593     Br1598   1.946       .  S
C1594      C1595   1.455       .  A
C1595     Br1596   1.912       .  S
C1600      C1601   1.457       .  A
C1600      C1605   1.394       .  A
C1600     Br1607   1.945       .  S
C1601      C1602   1.439       .  A
C1602      C1603   1.413       .  A
C1602     Br1609   1.933       .  S
C1603      C1604   1.403       .  A
C1603     Br1608   1.930       .  S
C1604      C1605   1.388       .  A
C1605     Br1606   1.942       .  S
C1610      C1611   1.409       .  A
C1610      C1615   1.397       .  A
C1610     Br1617   1.923       .  S
C1611      C1612   1.465       .  A
C1612      C1613   1.441       .  A
C1612     Br1619   1.949       .  S
C1613      C1614   1.423       .  A
C1613     Br1618   1.933       .  S
C1614      C1615   1.409       .  A
C1615     Br1616   1.919       .  S
C1620      C1621   1.403       .  A
C1620      C1625   1.414       .  A
C1620     Br1627   1.919       .  S
C1621      C1622   1.381       .  A
C1622      C1623   1.398       .  A
C1622     Br1629   1.907       .  S
C1623      C1624   1.459       .  A
C1623     Br1628   1.926       .  S
C1624      C1625   1.451       .  A
C1625     Br1626   1.909       .  S
C1630      C1631   1.405       .  A
C1630      C1635   1.401       .  A
C1630     Br1637   1.937       .  S
C1631      C1632   1.404       .  A
C1632      C1633   1.427       .  A
C1632     Br1639   1.943       .  S
C1633      C1634   1.464       .  A
C1633     Br1638   1.952       .  S
C1634      C1635   1.434       .  A
C1635     Br1636   1.932       .  S
C1640      C1641   1.421       .  A
C1640      C1645   1.417       .  A
C1640     Br1647   1.932       .  S
C1641      C1642   1.406       .  A
C1642      C1643   1.412       .  A
C1642     Br1649   1.929       .  S
C1643      C1644   1.455       .  A
C1643     Br1648   1.957       .  S
C1644      C1645   1.440       .  A
C1645     Br1646   1.937       .  S
C1650      C1651   1.427       .  A
C1650      C1655   1.426       .  A
C1650     Br1657   1.939       .  S
C1651      C1652   1.397       .  A
C1652      C1653   1.403       .  A
C1652     Br1659   1.944       .  S
C1653      C1654   1.436       .  A
C1653     Br1658   1.917       .  S
C1654      C1655   1.437       .  A
C1655     Br1656   1.956       .  S
O1660      C1668   1.267       .  A
O1661      C1669   1.277       .  A
O1662      C1670   1.241       .  A
O1663      C1671   1.267       .  A
O1664      C1670   1.272       .  A
O1665      C1671   1.291       .  A
O1665     Co1680   2.071       .  S
O1666      C1669   1.269       .  A
O1667      C1668   1.241       .  A
O1667     Co1682   1.959   1_655  S
C1668      C1888   1.509       .  S
C1669      C1851   1.527       .  S
C1670      C1828   1.468       .  S
C1671      C1841   1.465       .  S
O1672      C1685   1.264       .  A
O1673      C1686   1.250       .  A
O1673     Co1681   1.951   1_565  S
O1674      C1687   1.282       .  A
O1675      C1688   1.261       .  A
O1676      C1688   1.244       .  A
O1677      C1687   1.266       .  A
O1678      C1685   1.301       .  A
O1678     Co1683   2.114   1_556  S
O1679      C1686   1.279       .  A
Co1682     O1684   2.013       .  S
C1685      C1868   1.498       .  S
C1686      C1878   1.520       .  S
C1687      C1858   1.495       .  S
C1688      C1818   1.467       .  S
C1689      C1788   1.649       .  S
C1689      C1801   1.635       .  S
C1689      C1808   1.601       .  S
C1689      C1821   1.590       .  S
C1690      C1768   1.683       .  S
C1690      C1781   1.657       .  S
C1690      C1811   1.655       .  S
C1690      C1881   1.602       .  S
C1691      C1748   1.647       .  S
C1691      C1758   1.654       .  S
C1691      C1771   1.675       .  S
C1691      C1831   1.600       .  S
C1692      C1738   1.699       .  S
C1692      C1751   1.658       .  S
C1692      C1791   1.681       .  S
C1692      C1848   1.616       .  S
C1693      C1718   1.638       .  S
C1693      C1731   1.668       .  S
C1693      C1798   1.706       .  S
C1693      C1871   1.615       .  S
C1694      C1708   1.657       .  S
C1694      C1721   1.577       .  S
C1694      C1741   1.671       .  S
C1694      C1838   1.585       .  S
C1695      C1701   1.687       .  S
C1695      C1711   1.655       .  S
C1695      C1761   1.668       .  S
C1695      C1891   1.604       .  S
C1696      C1698   1.691       .  S
C1696      C1728   1.662       .  S
C1696      C1778   1.636       .  S
C1696      C1861   1.618       .  S
C1697      C1698   1.476       .  A
C1697      C1702   1.452       .  A
C1697     Br1704   1.968       .  S
C1698      C1699   1.456       .  A
C1699      C1700   1.470       .  A
C1699     Br1706   1.951       .  S
C1700      C1701   1.436       .  A
C1700     Br1705   1.952       .  S
C1701      C1702   1.414       .  A
C1702     Br1703   1.930       .  S
C1707      C1708   1.383       .  A
C1707      C1712   1.418       .  A
C1707     Br1714   1.884       .  S
C1708      C1709   1.465       .  A
C1709      C1710   1.467       .  A
C1709     Br1716   1.934       .  S
C1710      C1711   1.458       .  A
C1710     Br1715   1.932       .  S
C1711      C1712   1.409       .  A
C1712     Br1713   1.876       .  S
C1717      C1718   1.459       .  A
C1717      C1722   1.445       .  A
C1717     Br1724   1.954       .  S
C1718      C1719   1.448       .  A
C1719      C1720   1.382       .  A
C1719     Br1726   1.855       .  S
C1720      C1721   1.391       .  A
C1720     Br1725   1.942       .  S
C1721      C1722   1.429       .  A
C1722     Br1723   1.938       .  S
C1727      C1728   1.467       .  A
C1727      C1732   1.445       .  A
C1727     Br1734   1.930       .  S
C1728      C1729   1.452       .  A
C1729      C1730   1.449       .  A
C1729     Br1736   1.913       .  S
C1730      C1731   1.432       .  A
C1730     Br1735   1.928       .  S
C1731      C1732   1.418       .  A
C1732     Br1733   1.946       .  S
C1737      C1738   1.411       .  A
C1737      C1742   1.425       .  A
C1737     Br1744   1.946       .  S
C1738      C1739   1.494       .  A
C1739      C1740   1.487       .  A
C1739     Br1746   1.922       .  S
C1740      C1741   1.446       .  A
C1740     Br1745   1.936       .  S
C1741      C1742   1.436       .  A
C1742     Br1743   1.871       .  S
C1747      C1748   1.448       .  A
C1747      C1752   1.438       .  A
C1747     Br1754   1.916       .  S
C1748      C1749   1.437       .  A
C1749      C1750   1.445       .  A
C1749     Br1756   1.946       .  S
C1750      C1751   1.450       .  A
C1750     Br1755   1.909       .  S
C1751      C1752   1.434       .  A
C1752     Br1753   1.933       .  S
C1757      C1758   1.457       .  A
C1757      C1762   1.471       .  A
C1757     Br1764   1.931       .  S
C1758      C1759   1.420       .  A
C1759      C1760   1.410       .  A
C1759     Br1766   1.876       .  S
C1760      C1761   1.405       .  A
C1760     Br1765   1.933       .  S
C1761      C1762   1.470       .  A
C1762     Br1763   1.924       .  S
C1767      C1768   1.414       .  A
C1767      C1772   1.419       .  A
C1767     Br1774   1.917       .  S
C1768      C1769   1.452       .  A
C1769      C1770   1.485       .  A
C1769     Br1776   1.928       .  S
C1770      C1771   1.455       .  A
C1770     Br1775   1.952       .  S
C1771      C1772   1.440       .  A
C1772     Br1773   1.861       .  S
C1777      C1778   1.412       .  A
C1777      C1782   1.405       .  A
C1777     Br1784   1.915       .  S
C1778      C1779   1.455       .  A
C1779      C1780   1.466       .  A
C1779     Br1786   1.927       .  S
C1780      C1781   1.453       .  A
C1780     Br1785   1.933       .  S
C1781      C1782   1.438       .  A
C1782     Br1783   1.894       .  S
C1787      C1788   1.422       .  A
C1787      C1792   1.415       .  A
C1787     Br1794   1.971       .  S
C1788      C1789   1.431       .  A
C1789      C1790   1.463       .  A
C1789     Br1796   1.943       .  S
C1790      C1791   1.471       .  A
C1790     Br1795   1.946       .  S
C1791      C1792   1.447       .  A
C1792     Br1793   1.858       .  S
C1797      C1798   1.472       .  A
C1797      C1802   1.428       .  A
C1797     Br1804   1.857       .  S
C1798      C1799   1.468       .  A
C1799      C1800   1.458       .  A
C1799     Br1806   1.917       .  S
C1800      C1801   1.440       .  A
C1800     Br1805   1.956       .  S
C1801      C1802   1.393       .  A
C1802     Br1803   1.949       .  S
C1807      C1808   1.413       .  A
C1807      C1812   1.374       .  A
C1807     Br1814   1.881       .  S
C1808      C1809   1.458       .  A
C1809      C1810   1.459       .  A
C1809     Br1816   1.927       .  S
C1810      C1811   1.452       .  A
C1810     Br1815   1.937       .  S
C1811      C1812   1.393       .  A
C1812     Br1813   1.942       .  S
C1817      C1818   1.402       .  A
C1817      C1822   1.407       .  A
C1817     Br1824   1.936       .  S
C1818      C1819   1.386       .  A
C1819      C1820   1.404       .  A
C1819     Br1826   1.931       .  S
C1820      C1821   1.449       .  A
C1820     Br1825   1.924       .  S
C1821      C1822   1.454       .  A
C1822     Br1823   1.945       .  S
C1827      C1828   1.382       .  A
C1827      C1832   1.410       .  A
C1827     Br1834   1.934       .  S
C1828      C1829   1.393       .  A
C1829      C1830   1.406       .  A
C1829     Br1836   1.944       .  S
C1830      C1831   1.462       .  A
C1830     Br1835   1.946       .  S
C1831      C1832   1.455       .  A
C1832     Br1833   1.912       .  S
C1837      C1838   1.457       .  A
C1837      C1842   1.394       .  A
C1837     Br1844   1.945       .  S
C1838      C1839   1.439       .  A
C1839      C1840   1.413       .  A
C1839     Br1846   1.933       .  S
C1840      C1841   1.403       .  A
C1840     Br1845   1.930       .  S
C1841      C1842   1.388       .  A
C1842     Br1843   1.942       .  S
C1847      C1848   1.409       .  A
C1847      C1852   1.397       .  A
C1847     Br1854   1.923       .  S
C1848      C1849   1.465       .  A
C1849      C1850   1.441       .  A
C1849     Br1856   1.949       .  S
C1850      C1851   1.423       .  A
C1850     Br1855   1.933       .  S
C1851      C1852   1.409       .  A
C1852     Br1853   1.919       .  S
C1857      C1858   1.403       .  A
C1857      C1862   1.414       .  A
C1857     Br1864   1.919       .  S
C1858      C1859   1.381       .  A
C1859      C1860   1.398       .  A
C1859     Br1866   1.907       .  S
C1860      C1861   1.459       .  A
C1860     Br1865   1.926       .  S
C1861      C1862   1.451       .  A
C1862     Br1863   1.909       .  S
C1867      C1868   1.405       .  A
C1867      C1872   1.401       .  A
C1867     Br1874   1.937       .  S
C1868      C1869   1.404       .  A
C1869      C1870   1.427       .  A
C1869     Br1876   1.943       .  S
C1870      C1871   1.464       .  A
C1870     Br1875   1.952       .  S
C1871      C1872   1.434       .  A
C1872     Br1873   1.932       .  S
C1877      C1878   1.421       .  A
C1877      C1882   1.417       .  A
C1877     Br1884   1.932       .  S
C1878      C1879   1.406       .  A
C1879      C1880   1.412       .  A
C1879     Br1886   1.929       .  S
C1880      C1881   1.455       .  A
C1880     Br1885   1.957       .  S
C1881      C1882   1.440       .  A
C1882     Br1883   1.937       .  S
C1887      C1888   1.427       .  A
C1887      C1892   1.426       .  A
C1887     Br1894   1.939       .  S
C1888      C1889   1.397       .  A
C1889      C1890   1.403       .  A
C1889     Br1896   1.944       .  S
C1890      C1891   1.436       .  A
C1890     Br1895   1.917       .  S
C1891      C1892   1.437       .  A
C1892     Br1893   1.956       .  S
