geometry optimzed in LAMMPS
_audit_creation_date              2020-12-01 
_audit_creation_method            'lammps2cif' 
_symmetry_space_group_name_H-M    'P1' 
_symmetry_Int_Tables_number       1 
_symmetry_cell_setting            triclinic 
loop_ 
_symmetry_equiv_pos_as_xyz 
  x,y,z 
_cell_length_a                    29.47736428 
_cell_length_b                    29.252042791002832 
_cell_length_c                    41.14755840983167 
_cell_angle_alpha                 90.64496373601858 
_cell_angle_beta                  89.39453488561345 
_cell_angle_gamma                 119.21046007015899 
loop_ 
_atom_site_label 
_atom_site_type_symbol 
_atom_site_fract_x 
_atom_site_fract_y 
_atom_site_fract_z 
_atom_site_charge 
O1          O  0.10200732  0.33673193  0.29043700    -0.82500
C2          C  0.27442864  0.37951400  0.20772822     0.96800
O3          O  0.26511029  0.41128830  0.22344177    -0.71700
O4          O  0.17637867  0.40878953  0.21149119    -0.75300
Al5        Al  0.21009789  0.40579670  0.25030184     1.49000
C6          C  0.12777559  0.38764993  0.20783861     0.92100
O7          O  0.10198995  0.26301456  0.21345419    -0.81500
O8          O  0.17755680  0.26410266  0.29129744    -0.75000
Al9        Al  0.10628380  0.30182037  0.25194637     1.90100
O10         O  0.16260039  0.24359246  0.22580074    -0.74100
O11         O  0.26585398  0.34884880  0.27835537    -0.74000
O12         O  0.24812930  0.33106068  0.21308148    -0.79600
O13         O  0.24846121  0.41212786  0.28882938    -0.77800
O14         O  0.17568030  0.33595254  0.25148413    -1.14000
O15         O  0.16238935  0.41551893  0.27706547    -0.73100
C16         C  0.12324582  0.38584152  0.29401659     0.97600
C17         C  0.12389056  0.23558440  0.20897055     0.94000
Al18       Al  0.21042761  0.30007015  0.25209964     1.55600
O19         O  0.09781609  0.34924240  0.22509219    -0.77800
C20         C  0.27498643  0.38966243  0.29402584     0.98100
C21         C  0.12911924  0.23796887  0.29589998     0.93000
O22         O  0.09876165  0.24654707  0.27893544    -0.83100
C23         C  0.01005249  0.50169509  0.07210014     0.85700
C24         C  0.03984661  0.47626182  0.08795851    -0.54500
C25         C  0.04080076  0.47898289  0.12109358     0.08700
C26         C  0.01241156  0.50670882  0.13557016     0.19600
C27         C  0.45302260  0.46925078  0.08909309    -0.55200
C28         C  0.45423303  0.47292295  0.12214798     0.08800
C29         C  0.03574974  0.05752417  0.08673385    -0.58400
C30         C  0.03427485  0.05923952  0.11986109     0.09300
H31         H  0.05797824  0.45675392  0.07534230     0.13900
H32         H  0.00817738  0.00647633  0.16265945    -0.00400
H33         H  0.41697394  0.44812468  0.07566651     0.14200
H34         H  0.05454589  0.09256866  0.07196056     0.13900
C35         C  0.50561116  0.00828220  0.42760742     0.85700
C36         C  0.03132707  0.05913592  0.41422115    -0.54500
C37         C  0.03204076  0.05869247  0.38104910     0.08700
C38         C  0.50563293  0.00946806  0.36425620     0.19600
C39         C  0.45187762  0.48591905  0.41358159    -0.55200
C40         C  0.45190221  0.48478110  0.38047612     0.08800
C41         C  0.03424590  0.47743540  0.41462196    -0.54800
C42         C  0.03282459  0.47666224  0.38147453     0.09300
H43         H  0.05132761  0.09575432  0.42743829     0.13900
H44         H  0.50552297  0.01003350  0.33725311    -0.00400
H45         H  0.41622904  0.46919552  0.42785242     0.14200
H46         H  0.05310884  0.45985674  0.42823421     0.13900
O47         O  0.39590021  0.16104572  0.78650615    -0.82500
C48         C  0.22644801  0.11532134  0.70301666     0.96800
O49         O  0.23422500  0.08346362  0.71915647    -0.71700
O50         O  0.32254844  0.08396553  0.70933728    -0.75300
Al51       Al  0.28774032  0.08977776  0.74728554     1.49000
C52         C  0.37113253  0.10539329  0.70554561     0.92100
O53         O  0.39656506  0.23162434  0.70931888    -0.81500
O54         O  0.32037323  0.23305181  0.78766999    -0.75000
Al55       Al  0.39185115  0.19422718  0.74796893     1.90100
O56         O  0.33656641  0.25208245  0.72217156    -0.74100
O57         O  0.23124018  0.14818559  0.77427341    -0.74000
O58         O  0.25115859  0.16380173  0.70934742    -0.79600
O59         O  0.24786037  0.08491255  0.78515233    -0.77800
O60         O  0.32238479  0.15986336  0.74785685    -1.14000
O61         O  0.33426329  0.08164616  0.77515311    -0.73100
C62         C  0.37366747  0.11230765  0.79145581     0.97600
C63         C  0.37544491  0.25968405  0.70520016     0.94000
Al64       Al  0.28788006  0.19602741  0.74834880     1.55600
O65         O  0.40055510  0.14584478  0.72155770    -0.77800
C66         C  0.22111649  0.10738545  0.78972205     0.98100
C67         C  0.36890551  0.25960764  0.79191653     0.93000
O68         O  0.39937217  0.25074528  0.77465886    -0.83100
C69         C  0.99634400  0.49817250  0.92764544     0.85700
C70         C  0.46340452  0.43939554  0.91218821    -0.54500
C71         C  0.46438647  0.43936292  0.87895817     0.08700
C72         C  0.99667724  0.49774019  0.86411865     0.19600
C73         C  0.04735615  0.02182439  0.91095916    -0.55200
C74         C  0.04490659  0.01852232  0.87785553     0.08800
C75         C  0.46430500  0.02969629  0.91325895    -0.54800
C76         C  0.46462738  0.02813740  0.88013309     0.09300
H77         H  0.44364113  0.40354124  0.92611128     0.13900
H78         H  0.99614817  0.49745834  0.83712321    -0.00400
H79         H  0.08393516  0.04326334  0.92375488     0.14200
H80         H  0.44584010  0.04896239  0.92576229     0.13900
C81         C  0.99773598  0.48987078  0.57439477     0.85700
C82         C  0.46382706  0.01512674  0.58654705    -0.54500
C83         C  0.46463382  0.01592090  0.61970920     0.08700
C84         C  0.00186626  0.49090063  0.63784657     0.19600
C85         C  0.04541415  0.01792342  0.58644417    -0.55200
C86         C  0.04805002  0.01932710  0.61943021     0.08800
C87         C  0.47074185  0.43843015  0.58673054    -0.54800
C88         C  0.47043238  0.43829064  0.61979099     0.09300
H89         H  0.44375545  0.03107393  0.57260714     0.13900
H90         H  0.00383342  0.49061017  0.66476568    -0.00400
H91         H  0.07980494  0.03748922  0.57114280     0.14200
H92         H  0.45311994  0.40178821  0.57345963     0.13900
C93         C  0.38923086  0.35161547  0.86401973    -0.27100
C94         C  0.44066529  0.39115996  0.85835154    -0.15100
C95         C  0.46856479  0.38585462  0.83187594     0.35500
C96         C  0.44402660  0.34247917  0.81101085    -0.26500
C97         C  0.39212545  0.30344717  0.81592792    -0.15800
C98         C  0.36461997  0.30769797  0.84308516     0.36600
N99         N  0.31207013  0.26767507  0.84934699    -0.90000
H100        H  0.36784903  0.35561535  0.88441117     0.17700
H101        H  0.46573731  0.33957619  0.79042755     0.17700
N102        N  0.02532909  0.42467333  0.82783102    -0.89000
H103        H  0.29732031  0.27699350  0.87007133     0.35100
H104        H  0.31287090  0.23317517  0.85457191     0.40200
H105        H  0.04031532  0.41413699  0.80773825     0.39800
H106        H  0.04554161  0.42306278  0.84809664     0.34700
C107        C  0.17620479  0.05548831  0.83916584    -0.27100
C108        C  0.17643957  0.08533449  0.81260824    -0.15100
C109        C  0.13303250  0.09269156  0.80769537     0.35500
C110        C  0.09110748  0.07114057  0.82951963    -0.26500
C111        C  0.09116448  0.04192649  0.85623245    -0.15800
C112        C  0.13399515  0.03380408  0.86098151     0.36600
N113        N  0.13405684  0.00218613  0.88727287    -0.90000
H114        H  0.20887498  0.04891556  0.84303267     0.17700
H115        H  0.05822366  0.07731126  0.82545666     0.17700
N116        N  0.13047639  0.12060427  0.77999401    -0.89000
H117        H  0.16671510  0.02493824  0.90155468     0.35100
H118        H  0.13784729  0.97106569  0.87749612     0.40200
H119        H  0.12569217  0.15190246  0.78831166     0.39800
H120        H  0.09758901  0.09542700  0.76654540     0.34700
C121        C  0.43615112  0.12443817  0.83580703    -0.27100
C122        C  0.39483957  0.09035094  0.81565545    -0.15100
C123        C  0.37631651  0.03571983  0.81779449     0.35500
C124        C  0.39911604  0.01670008  0.83961533    -0.26500
C125        C  0.44009726  0.05074269  0.85950612    -0.15800
C126        C  0.45901018  0.10521052  0.85752677     0.36600
N127        N  0.00436923  0.13587363  0.87695731    -0.90000
H128        H  0.45149794  0.16639768  0.83432889     0.17700
H129        H  0.38504069  0.97487713  0.84074369     0.17700
N130        N  0.33525151  0.99917136  0.79736581    -0.89000
H131        H  0.03496882  0.12899478  0.87061800     0.35100
H132        H  0.99670080  0.12886253  0.90176931     0.40200
H133        H  0.30512228  0.97260571  0.81224801     0.39800
H134        H  0.34934147  0.97837606  0.78367908     0.34700
C135        C  0.44165430  0.31292324  0.66296995    -0.27100
C136        C  0.39738468  0.30334300  0.68140076    -0.15100
C137        C  0.37646176  0.33759504  0.67797001     0.35500
C138        C  0.40055227  0.38059480  0.65716805    -0.26500
C139        C  0.44484378  0.39018840  0.63932533    -0.15800
C140        C  0.46543847  0.35586557  0.64202935     0.36600
N141        N  0.03842574  0.39825759  0.65926455    -0.90000
H142        H  0.45857497  0.28752137  0.66523071     0.17700
H143        H  0.38479041  0.40708164  0.65518991     0.17700
N144        N  0.33129533  0.32972744  0.69588974    -0.89000
H145        H  0.05125721  0.43623735  0.66801264     0.35100
H146        H  0.05027741  0.40035901  0.63503414     0.40200
H147        H  0.30293231  0.32572029  0.67930155     0.39800
H148        H  0.34124991  0.36319662  0.71003010     0.34700
C149        C  0.13180122  0.02802627  0.63814817    -0.27100
C150        C  0.09753272  0.04826695  0.63727106    -0.15100
C151        C  0.10972781  0.09479678  0.65435457     0.35500
C152        C  0.15345212  0.11739520  0.67470658    -0.26500
C153        C  0.18549689  0.09461757  0.67785360    -0.15800
C154        C  0.17529457  0.05028776  0.65840077     0.36600
N155        N  0.20851785  0.02730422  0.65836926    -0.90000
H156        H  0.12368514  0.99354029  0.62387993     0.17700
H157        H  0.16150498  0.15186631  0.68898635     0.17700
N158        N  0.07769921  0.11887967  0.65088789    -0.89000
H159        H  0.20691937  0.01122814  0.68115471     0.35100
H160        H  0.24659245  0.05663631  0.65363106     0.40200
H161        H  0.08029793  0.13044914  0.62668240     0.39800
H162        H  0.09182081  0.15286751  0.66512363     0.34700
C163        C  0.46844532  0.07194912  0.66599131    -0.27100
C164        C  0.43955047  0.03914369  0.64038633    -0.15100
C165        C  0.38747989  0.02738418  0.63611832     0.35500
C166        C  0.36572680  0.04957012  0.65749011    -0.26500
C167        C  0.39486398  0.08268457  0.68316545    -0.15800
C168        C  0.44671167  0.09319630  0.68769913     0.36600
N169        N  0.47693820  0.12435309  0.71478025    -0.90000
H170        H  0.99543462  0.05789325  0.68202647     0.17700
H171        H  0.32587400  0.04080262  0.65416884     0.17700
N172        N  0.36145758  0.50310051  0.61077879    -0.89000
H173        H  0.99647840  0.09674684  0.72987549     0.35100
H174        H  0.45938042  0.10359572  0.73599313     0.40200
H175        H  0.35473790  0.46516572  0.61523893     0.39800
H176        H  0.31920350  0.98772273  0.61085365     0.34700
C177        C  0.52126187  0.04855627  0.48493179    -0.27100
C178        C  0.50279468  0.00401548  0.46468161    -0.15100
C179        C  0.98330852  0.45301233  0.48294825     0.35500
C180        C  0.98030884  0.44892536  0.51691590    -0.26500
C181        C  0.49669252  0.99477816  0.53371273    -0.15800
C182        C  0.51851566  0.04440925  0.51881002     0.36600
N183        N  0.53815306  0.09125613  0.53813644    -0.90000
H184        H  0.53729204  0.08741094  0.47523176     0.17700
H185        H  0.96387708  0.41008179  0.52668586     0.17700
N186        N  0.96346992  0.40608314  0.46369573    -0.89000
H187        H  0.51807896  0.11105539  0.53186663     0.35100
H188        H  0.57738733  0.11514776  0.53226591     0.40200
H189        H  0.92419097  0.38240522  0.46952717     0.39800
H190        H  0.98331564  0.38609530  0.47007577     0.34700
C191        C  0.02559921  0.47405026  0.01541243    -0.27100
C192        C  0.00560109  0.50029822  0.03478373    -0.15100
C193        C  0.47672252  0.02886101  0.01974366     0.35500
C194        C  0.47302268  0.02641159  0.98588889    -0.26500
C195        C  0.99845650  0.49725326  0.96505536    -0.15800
C196        C  0.02218055  0.47186921  0.98149006     0.36600
N197        N  0.04352018  0.44313418  0.96490973    -0.90000
H198        H  0.04397247  0.45384986  0.02595702     0.17700
H199        H  0.45424736  0.04622626  0.97537579     0.17700
N200        N  0.45450596  0.05685835  0.03623256    -0.89000
H201        H  0.07355608  0.46752303  0.94935086     0.35100
H202        H  0.01463526  0.41178834  0.95198513     0.40200
H203        H  0.48329266  0.08996372  0.04787759     0.39800
H204        H  0.42608497  0.03270149  0.05277719     0.34700
C205        C  0.09108246  0.48339239  0.33591007    -0.27100
C206        C  0.05710205  0.45293033  0.36057309    -0.15100
C207        C  0.04466460  0.40017450  0.36353684     0.35500
C208        C  0.06702426  0.37892083  0.34200150    -0.26500
C209        C  0.10148313  0.40954720  0.31727248    -0.15800
C210        C  0.11312777  0.46238605  0.31424455     0.36600
N211        N  0.14597679  0.49466239  0.28856747    -0.90000
H212        H  0.11083354  0.02403404  0.34555500     0.17700
H213        H  0.05691862  0.33819316  0.34446112     0.17700
N214        N  0.51316037  0.37410862  0.39002126    -0.89000
H215        H  0.19207566  0.02265614  0.32063136     0.35100
H216        H  0.12465665  0.50721072  0.27468125     0.40200
H217        H  0.53312568  0.36149154  0.40511045     0.39800
H218        H  0.48268334  0.34109227  0.37912147     0.34700
C219        C  0.32401189  0.45207021  0.33919952    -0.27100
C220        C  0.31846233  0.41189531  0.31777592    -0.15100
C221        C  0.35612500  0.39511771  0.31840901     0.35500
C222        C  0.39829070  0.41912355  0.33962678    -0.26500
C223        C  0.40423310  0.45967501  0.36052907    -0.15800
C224        C  0.36651437  0.47650436  0.36039481     0.36600
N225        N  0.36526229  0.01335753  0.38402662    -0.90000
H226        H  0.29565999  0.46551926  0.33906903     0.17700
H227        H  0.42708826  0.40619600  0.33952411     0.17700
N228        N  0.35271643  0.35452411  0.29706030    -0.89000
H229        H  0.36357959  0.04230086  0.37023917     0.35100
H230        H  0.40049413  0.03245180  0.39631673     0.40200
H231        H  0.35143768  0.32447886  0.31124711     0.39800
H232        H  0.38648531  0.36981736  0.28281425     0.34700
C233        C  0.10951435  0.14399049  0.36549290    -0.27100
C234        C  0.05697870  0.10668748  0.36103082    -0.15100
C235        C  0.02855137  0.11442773  0.33661290     0.35500
C236        C  0.05298139  0.15789831  0.31642117    -0.26500
C237        C  0.10590597  0.19472264  0.31985710    -0.15800
C238        C  0.13443069  0.18814006  0.34510396     0.36600
N239        N  0.18821639  0.22586138  0.34994581    -0.90000
H240        H  0.13130085  0.13808075  0.38446898     0.17700
H241        H  0.03006663  0.16214415  0.29747809     0.17700
N242        N  0.47575615  0.08915978  0.33631490    -0.89000
H243        H  0.20347756  0.21476848  0.36923273     0.35100
H244        H  0.19002735  0.26122146  0.35685813     0.40200
H245        H  0.46617302  0.07411104  0.31269409     0.39800
H246        H  0.45824820  0.11224367  0.34090422     0.34700
C247        C  0.13550578  0.44149851  0.15896888    -0.27100
C248        C  0.10486073  0.40876708  0.18429847    -0.15100
C249        C  0.05271046  0.39809437  0.18761153     0.35500
C250        C  0.03302538  0.42116309  0.16648057    -0.26500
C251        C  0.06375278  0.45434940  0.14164144    -0.15800
C252        C  0.11537612  0.46427856  0.13747711     0.36600
N253        N  0.14741726  0.49826008  0.11199624    -0.90000
H254        H  0.17535131  0.44970168  0.15609711     0.17700
H255        H  0.99319407  0.41302153  0.16957378     0.17700
N256        N  0.01963440  0.36484463  0.21288887    -0.89000
H257        H  0.18428645  0.50136949  0.11220285     0.35100
H258        H  0.15274113  0.53570750  0.11689878     0.40200
H259        H  0.98694498  0.33393747  0.20207525     0.39800
H260        H  0.00720941  0.38644558  0.22720496     0.34700
C261        C  0.35738313  0.45370347  0.18911311    -0.27100
C262        C  0.31886537  0.40126601  0.18447973    -0.15100
C263        C  0.32454944  0.37252645  0.15829498     0.35500
C264        C  0.36836795  0.39670557  0.13787944    -0.26500
C265        C  0.40697766  0.44895962  0.14304729    -0.15800
C266        C  0.40083832  0.47787875  0.16865685     0.36600
N267        N  0.43601572  0.03945428  0.17466595    -0.90000
H268        H  0.35375095  0.47637056  0.20897003     0.17700
H269        H  0.37272790  0.37422780  0.11817690     0.17700
N270        N  0.28645756  0.31936409  0.15144044    -0.89000
H271        H  0.42579232  0.05437607  0.19495541     0.35100
H272        H  0.43354025  0.05954019  0.15454450     0.40200
H273        H  0.25044402  0.31754738  0.14837495     0.39800
H274        H  0.28418797  0.29612810  0.17115530     0.34700
C275        C  0.07149958  0.19195858  0.15936619    -0.27100
C276        C  0.10354894  0.19249858  0.18456662    -0.15100
C277        C  0.11443423  0.15066241  0.18677662     0.35500
C278        C  0.09297268  0.10946690  0.16430709    -0.26500
C279        C  0.05962367  0.10785484  0.13977926    -0.15800
C280        C  0.04875232  0.14995845  0.13717394     0.36600
N281        N  0.50410231  0.14998154  0.11921375    -0.90000
H282        H  0.06287373  0.22383792  0.15733777     0.17700
H283        H  0.10159396  0.07759972  0.16661072     0.17700
N284        N  0.14572553  0.14857199  0.21252346    -0.89000
H285        H  0.47487566  0.14898781  0.13430027     0.35100
H286        H  0.48676010  0.11542517  0.10563003     0.40200
H287        H  0.17716432  0.14642178  0.20214299     0.39800
H288        H  0.12339674  0.11424611  0.22566877     0.34700
O289        O  0.09889724  0.83544922  0.29019473    -0.82500
C290        C  0.27399000  0.88367867  0.20867557     0.96800
O291        O  0.26441250  0.91449475  0.22529654    -0.71700
O292        O  0.17583018  0.91200249  0.21333042    -0.75300
Al293      Al  0.20835401  0.90704835  0.25193647     1.49000
C294        C  0.12738262  0.89035051  0.20904080     0.92100
O295        O  0.10249276  0.76474981  0.21221153    -0.81500
O296        O  0.17704269  0.76491179  0.29037047    -0.75000
Al297      Al  0.10515671  0.80212946  0.25130224     1.90100
O298        O  0.16309167  0.74573673  0.22483802    -0.74100
O299        O  0.26504191  0.85044533  0.27802320    -0.74000
O300        O  0.24757721  0.83487207  0.21289788    -0.79600
O301        O  0.24542135  0.91155496  0.29051124    -0.77800
O302        O  0.17448851  0.83712566  0.25163333    -1.14000
O303        O  0.15966774  0.91485726  0.27872044    -0.73100
C304        C  0.12010329  0.88435918  0.29501886     0.97600
C305        C  0.12515736  0.73806976  0.20738786     0.94000
Al306      Al  0.20998370  0.80203589  0.25158171     1.55600
O307        O  0.09713188  0.85025737  0.22496006    -0.77800
C308        C  0.27333981  0.89033751  0.29441118     0.98100
C309        C  0.12859450  0.73818165  0.29489223     0.93000
O310        O  0.09787159  0.74619159  0.27783997    -0.83100
C311        C  0.00940491  0.00150440  0.07230127     0.85700
C312        C  0.03895750  0.97626496  0.08865758    -0.54500
C313        C  0.03845077  0.97853306  0.12181900     0.08700
C314        C  0.00861824  0.00507214  0.13566653     0.19600
C315        C  0.45203496  0.97818939  0.09004719    -0.55200
C316        C  0.45332676  0.98146905  0.12311922     0.08800
C317        C  0.03746047  0.55802884  0.08609521    -0.58400
C318        C  0.03766610  0.56042016  0.11921636     0.09300
H319        H  0.05789080  0.95728611  0.07633566     0.13900
H320        H  0.01351649  0.50891739  0.16255233    -0.00400
H321        H  0.41591609  0.95700560  0.07671050     0.14200
H322        H  0.05492857  0.59286043  0.07109180     0.13900
C323        C  0.50660488  0.51186567  0.42867216     0.85700
C324        C  0.03654291  0.56172434  0.41513830    -0.54500
C325        C  0.03512435  0.56087639  0.38193612     0.08700
C326        C  0.50635468  0.50960550  0.36528547     0.19600
C327        C  0.45106246  0.98448575  0.41254270    -0.55200
C328        C  0.45127840  0.98541975  0.37943476     0.08800
C329        C  0.02464421  0.97281950  0.41448170    -0.54800
C330        C  0.02547426  0.97254477  0.38133063     0.09300
H331        H  0.05658081  0.59848045  0.42823714     0.13900
H332        H  0.50619269  0.50836976  0.33828384    -0.00400
H333        H  0.41539650  0.96718857  0.42680589     0.14200
H334        H  0.04127420  0.95377462  0.42883240     0.13900
O335        O  0.40057048  0.66463441  0.79054419    -0.82500
C336        C  0.23320379  0.61988833  0.70492949     0.96800
O337        O  0.24045440  0.58825345  0.72162491    -0.71700
O338        O  0.32964895  0.59119765  0.71111199    -0.75300
Al339      Al  0.29443943  0.59472340  0.74930013     1.49000
C340        C  0.37832462  0.61202018  0.70802968     0.92100
O341        O  0.40375423  0.73685470  0.71336059    -0.81500
O342        O  0.32415063  0.73640927  0.79007371    -0.75000
Al343      Al  0.39797955  0.69893138  0.75190814     1.90100
O344        O  0.34281719  0.75659613  0.72492805    -0.74100
O345        O  0.23707876  0.65154972  0.77581371    -0.74000
O346        O  0.25837552  0.66843420  0.71089988    -0.79600
O347        O  0.25487486  0.58917722  0.78739618    -0.77800
O348        O  0.32865855  0.66455605  0.75059403    -1.14000
O349        O  0.34095192  0.58579384  0.77651175    -0.73100
C350        C  0.37892046  0.61555961  0.79409095     0.97600
C351        C  0.38168864  0.76374752  0.70813936     0.94000
Al352      Al  0.29367698  0.70013155  0.75047393     1.55600
O353        O  0.40780343  0.65102538  0.72525299    -0.77800
C354        C  0.22783181  0.61140628  0.79175025     0.98100
C355        C  0.37226307  0.76289631  0.79549383     0.93000
O356        O  0.40387458  0.75466881  0.77895054    -0.83100
C357        C  0.99391881  0.99604178  0.92816386     0.85700
C358        C  0.46003276  0.94469431  0.91443997    -0.54500
C359        C  0.46095771  0.94343346  0.88133705     0.08700
C360        C  0.98932692  0.99136217  0.86468983     0.19600
C361        C  0.05104328  0.52418441  0.91209921    -0.55200
C362        C  0.05114373  0.52327709  0.87894726     0.08800
C363        C  0.46584593  0.52378762  0.91247043    -0.54800
C364        C  0.46656034  0.52362908  0.87941509     0.09300
H365        H  0.43959108  0.90939044  0.92880204     0.13900
H366        H  0.98703874  0.98898668  0.83772947    -0.00400
H367        H  0.08656313  0.54380387  0.92614459     0.14200
H368        H  0.44773787  0.54317139  0.92522181     0.13900
C369        C  0.98970935  0.98764748  0.57304313     0.85700
C370        C  0.46679310  0.51986168  0.58771437    -0.54500
C371        C  0.46641586  0.51922053  0.62088357     0.08700
C372        C  0.99499268  0.98852881  0.63638771     0.19600
C373        C  0.05300049  0.52113404  0.58819926    -0.55200
C374        C  0.05505783  0.52248900  0.62117531     0.08800
C375        C  0.47233110  0.93635319  0.58634427    -0.54800
C376        C  0.47330929  0.93767168  0.61942674     0.09300
H377        H  0.44905089  0.53829908  0.57383292     0.13900
H378        H  0.99731638  0.98791127  0.66323388    -0.00400
H379        H  0.08760611  0.54122767  0.57312498     0.14200
H380        H  0.45544408  0.89928368  0.57351632     0.13900
C381        C  0.38512901  0.85778423  0.86437828    -0.27100
C382        C  0.43815377  0.89461595  0.86172118    -0.15100
C383        C  0.46921769  0.88615730  0.83902707     0.35500
C384        C  0.44689360  0.84231329  0.81859301    -0.26500
C385        C  0.39344469  0.80605993  0.82001679    -0.15800
C386        C  0.36228120  0.81340232  0.84370522     0.36600
N387        N  0.30782934  0.77635899  0.84657833    -0.90000
H388        H  0.36135813  0.86438347  0.88203352     0.17700
H389        H  0.47179860  0.83749340  0.80093766     0.17700
N390        N  0.02601630  0.90881240  0.84289428    -0.89000
H391        H  0.29057375  0.78808375  0.86477373     0.35100
H392        H  0.30454813  0.74085340  0.85413826     0.40200
H393        H  0.04395708  0.89517573  0.82637786     0.39800
H394        H  0.03801852  0.90502341  0.86605283     0.34700
C395        C  0.18396249  0.56140438  0.84196453    -0.27100
C396        C  0.18367191  0.58999787  0.81485451    -0.15100
C397        C  0.14053934  0.59761317  0.80977889     0.35500
C398        C  0.09893358  0.57684282  0.83164952    -0.26500
C399        C  0.09869081  0.54778398  0.85850752    -0.15800
C400        C  0.14181420  0.54018384  0.86396684     0.36600
N401        N  0.14233575  0.51031924  0.89132440    -0.90000
H402        H  0.21704549  0.55554789  0.84594030     0.17700
H403        H  0.06623947  0.58319409  0.82730325     0.17700
N404        N  0.13788313  0.62501409  0.78182402    -0.89000
H405        H  0.17698121  0.50870699  0.89183778     0.35100
H406        H  0.11238123  0.47184541  0.88822029     0.40200
H407        H  0.13353370  0.65670490  0.78985524     0.39800
H408        H  0.10478857  0.59972461  0.76858252     0.34700
C409        C  0.44222355  0.62436013  0.83718809    -0.27100
C410        C  0.39905124  0.59186079  0.81783231    -0.15100
C411        C  0.37755289  0.53673453  0.82013583     0.35500
C412        C  0.40004624  0.51575598  0.84074334    -0.26500
C413        C  0.44313119  0.54824786  0.85959956    -0.15800
C414        C  0.46437668  0.60309691  0.85797258     0.36600
N415        N  0.01064802  0.64156870  0.87535717    -0.90000
H416        H  0.45958054  0.66656473  0.83575399     0.17700
H417        H  0.38382950  0.47360707  0.84188881     0.17700
N418        N  0.33331840  0.50153025  0.80131209    -0.89000
H419        H  0.04149687  0.63532399  0.86861160     0.35100
H420        H  0.00360368  0.63428105  0.90020240     0.40200
H421        H  0.30393644  0.47675552  0.81728370     0.39800
H422        H  0.34385587  0.47858276  0.78681502     0.34700
C423        C  0.44874998  0.81678061  0.66655319    -0.27100
C424        C  0.40242106  0.80542918  0.68306494    -0.15100
C425        C  0.37805289  0.83582706  0.67636328     0.35500
C426        C  0.40235353  0.87844065  0.65522083    -0.26500
C427        C  0.44912789  0.89034484  0.63963146    -0.15800
C428        C  0.47236180  0.85872171  0.64485461     0.36600
N429        N  0.03506043  0.90571868  0.66192870    -0.90000
H430        H  0.46758258  0.79358937  0.67098082     0.17700
H431        H  0.38464038  0.90269187  0.65078257     0.17700
N432        N  0.32903508  0.82388638  0.69107703    -0.89000
H433        H  0.04410843  0.94291064  0.67046208     0.35100
H434        H  0.04938338  0.90881988  0.63824339     0.40200
H435        H  0.30096885  0.78784176  0.68161905     0.39800
H436        H  0.31776603  0.85126580  0.68441034     0.34700
C437        C  0.13659568  0.52926731  0.64203534    -0.27100
C438        C  0.10433520  0.55152335  0.63913784    -0.15100
C439        C  0.11869855  0.60033556  0.65392257     0.35500
C440        C  0.16254491  0.62341273  0.67423886    -0.26500
C441        C  0.19245815  0.59873033  0.67957073    -0.15800
C442        C  0.18012906  0.55193769  0.66215894     0.36600
N443        N  0.21117474  0.52667042  0.66406255    -0.90000
H444        H  0.12689430  0.49297666  0.62938389     0.17700
H445        H  0.17224353  0.65974872  0.68683502     0.17700
N446        N  0.08861818  0.62603906  0.64832265    -0.89000
H447        H  0.20837922  0.51196869  0.68743371     0.35100
H448        H  0.24981265  0.55423715  0.65904981     0.40200
H449        H  0.09155958  0.63502061  0.62360083     0.39800
H450        H  0.10423814  0.66161842  0.66101609     0.34700
C451        C  0.47259539  0.57481957  0.66806206    -0.27100
C452        C  0.44344550  0.54431479  0.64170681    -0.15100
C453        C  0.39271146  0.53612765  0.63689605     0.35500
C454        C  0.37248576  0.55941794  0.65847077    -0.26500
C455        C  0.40156309  0.58972220  0.68506889    -0.15800
C456        C  0.45208840  0.59685883  0.69012048     0.36600
N457        N  0.48193703  0.62505886  0.71809975    -0.90000
H458        H  0.00497913  0.56645350  0.68016121     0.17700
H459        H  0.33361954  0.55332671  0.65472689     0.17700
N460        N  0.35664490  0.99223614  0.61064162    -0.89000
H461        H  0.00803842  0.61031710  0.72632165     0.35100
H462        H  0.46252143  0.60344456  0.73869416     0.40200
H463        H  0.35254360  0.95541506  0.61556890     0.39800
H464        H  0.32506996  0.50111716  0.61067022     0.34700
C465        C  0.52617385  0.55309986  0.48608465    -0.27100
C466        C  0.50425122  0.50845037  0.46578125    -0.15100
C467        C  0.96951583  0.95033020  0.48166186     0.35500
C468        C  0.96683532  0.94632406  0.51565414    -0.26500
C469        C  0.49885125  0.49877276  0.53482931    -0.15800
C470        C  0.52357026  0.54869128  0.52006879     0.36600
N471        N  0.54631492  0.59541540  0.53960538    -0.90000
H472        H  0.54553999  0.59208386  0.47630300     0.17700
H473        H  0.94704438  0.90740021  0.52546796     0.17700
N474        N  0.94584965  0.90336527  0.46237000    -0.89000
H475        H  0.52865447  0.61768822  0.53363769     0.35100
H476        H  0.58577446  0.61705183  0.53360645     0.40200
H477        H  0.90633960  0.88261050  0.46837934     0.39800
H478        H  0.96266450  0.88040241  0.46856345     0.34700
C479        C  0.02968032  0.97815890  0.01568633    -0.27100
C480        C  0.00636461  0.00116195  0.03505057    -0.15100
C481        C  0.47427777  0.51868057  0.01879013     0.35500
C482        C  0.47150010  0.51680253  0.98481918    -0.26500
C483        C  0.99840214  0.99714107  0.96547016    -0.15800
C484        C  0.02571035  0.97530819  0.98178455     0.36600
N485        N  0.04968594  0.94911803  0.96514320    -0.90000
H486        H  0.05132724  0.96134149  0.02625655     0.17700
H487        H  0.45006291  0.53388824  0.97441051     0.17700
N488        N  0.44802311  0.54310425  0.03513237    -0.89000
H489        H  0.07968641  0.97500432  0.95010394     0.35100
H490        H  0.02216574  0.91754745  0.95164683     0.40200
H491        H  0.45090790  0.54398290  0.06023127     0.39800
H492        H  0.40837856  0.52078111  0.03002483     0.34700
C493        C  0.09492228  0.98196686  0.34351502    -0.27100
C494        C  0.05074961  0.94870726  0.36150789    -0.15100
C495        C  0.02954846  0.89403813  0.35845200     0.35500
C496        C  0.05338778  0.87368973  0.33725460    -0.26500
C497        C  0.09782739  0.90701866  0.31891644    -0.15800
C498        C  0.11869672  0.96198253  0.32243462     0.36600
N499        N  0.16345522  0.99807391  0.30423029    -0.90000
H500        H  0.10029294  0.52385965  0.33321324     0.17700
H501        H  0.03653584  0.83164339  0.33461264     0.17700
N502        N  0.50892456  0.87056408  0.38646388    -0.89000
H503        H  0.17711904  0.52767455  0.29899768     0.35100
H504        H  0.15307085  0.02111732  0.29023191     0.40200
H505        H  0.52894146  0.85758864  0.40123122     0.39800
H506        H  0.47822697  0.83777022  0.37552794     0.34700
C507        C  0.32054052  0.94929873  0.34108452    -0.27100
C508        C  0.31765022  0.91323597  0.31724303    -0.15100
C509        C  0.35877465  0.90155962  0.31442359     0.35500
C510        C  0.40092399  0.92520334  0.33553493    -0.26500
C511        C  0.40395449  0.96122249  0.35925302    -0.15800
C512        C  0.36353351  0.97420424  0.36180422     0.36600
N513        N  0.37049519  0.51889572  0.38047636    -0.90000
H514        H  0.28969912  0.95924273  0.34320566     0.17700
H515        H  0.43192971  0.91549326  0.33314293     0.17700
N516        N  0.35891254  0.86683323  0.28960725    -0.89000
H517        H  0.37215934  0.54788371  0.36509341     0.35100
H518        H  0.40491584  0.53654842  0.39368096     0.40200
H519        H  0.36138931  0.83624713  0.30084178     0.39800
H520        H  0.39216649  0.88743880  0.27521807     0.34700
C521        C  0.11133775  0.64612378  0.36516764    -0.27100
C522        C  0.05876328  0.60848540  0.36148873    -0.15100
C523        C  0.02948207  0.61507375  0.33710738     0.35500
C524        C  0.05309359  0.65802267  0.31635664    -0.26500
C525        C  0.10604943  0.69524536  0.31913164    -0.15800
C526        C  0.13544572  0.68954964  0.34419039     0.36600
N527        N  0.18940438  0.72739196  0.34821300    -0.90000
H528        H  0.13386622  0.64094728  0.38396729     0.17700
H529        H  0.02958469  0.66155520  0.29752438     0.17700
N530        N  0.47516313  0.58077291  0.33017360    -0.89000
H531        H  0.20540911  0.71683590  0.36734668     0.35100
H532        H  0.19146598  0.76292939  0.35494773     0.40200
H533        H  0.47008835  0.56497862  0.30671362     0.39800
H534        H  0.45393005  0.60072101  0.33208650     0.34700
C535        C  0.13516845  0.94508873  0.16074267    -0.27100
C536        C  0.10483387  0.91255326  0.18620833    -0.15100
C537        C  0.05308981  0.90260791  0.19025147     0.35500
C538        C  0.03248989  0.92401440  0.16861547    -0.26500
C539        C  0.06239558  0.95584294  0.14304526    -0.15800
C540        C  0.11449056  0.96716340  0.13916675     0.36600
N541        N  0.14641597  0.00191335  0.11393916    -0.90000
H542        H  0.17506556  0.95349765  0.15776565     0.17700
H543        H  0.99264364  0.91569784  0.17192994     0.17700
N544        N  0.02151098  0.87195116  0.21685514    -0.89000
H545        H  0.18377643  0.00626196  0.11447343     0.35100
H546        H  0.15047283  0.03886012  0.11891575     0.40200
H547        H  0.98797569  0.84032046  0.20736049     0.39800
H548        H  0.01034381  0.89511845  0.23061942     0.34700
C549        C  0.35594881  0.95977286  0.19017626    -0.27100
C550        C  0.31853659  0.90683062  0.18553284    -0.15100
C551        C  0.32538196  0.87874047  0.15941245     0.35500
C552        C  0.36879077  0.90410449  0.13886099    -0.26500
C553        C  0.40619653  0.95676142  0.14398687    -0.15800
C554        C  0.39936778  0.98496728  0.16972970     0.36600
N555        N  0.43806681  0.53223689  0.17335741    -0.90000
H556        H  0.35158262  0.98193682  0.21006464     0.17700
H557        H  0.37398915  0.88213145  0.11917667     0.17700
N558        N  0.28911281  0.82485422  0.15290263    -0.89000
H559        H  0.42838300  0.54768542  0.19361760     0.35100
H560        H  0.43567648  0.55226054  0.15317911     0.40200
H561        H  0.25224441  0.82101051  0.14982750     0.39800
H562        H  0.28829361  0.80245845  0.17273444     0.34700
C563        C  0.06471283  0.68763985  0.16195232    -0.27100
C564        C  0.10635500  0.69596690  0.18207564    -0.15100
C565        C  0.12803745  0.66229490  0.17852097     0.35500
C566        C  0.10538672  0.61938432  0.15719447    -0.26500
C567        C  0.06244877  0.60979964  0.13830234    -0.15800
C568        C  0.04256756  0.64521987  0.14003187     0.36600
N569        N  0.50138033  0.64248860  0.11689083    -0.90000
H570        H  0.04824520  0.71357710  0.16372659     0.17700
H571        H  0.12126495  0.59288509  0.15562618     0.17700
N572        N  0.17276867  0.67087517  0.19667952    -0.89000
H573        H  0.47173288  0.64147654  0.13156938     0.35100
H574        H  0.48453163  0.60766970  0.10359070     0.40200
H575        H  0.20202551  0.67571769  0.18021046     0.39800
H576        H  0.16293070  0.63740788  0.21040098     0.34700
O577        O  0.60516284  0.34156253  0.29135251    -0.82500
C578        C  0.77837336  0.38726032  0.20816689     0.96800
O579        O  0.77016617  0.41871462  0.22515237    -0.71700
O580        O  0.68117473  0.41721033  0.21383742    -0.75300
Al581      Al  0.71434378  0.41171943  0.25230771     1.49000
C582        C  0.63255018  0.39575581  0.20990605     0.92100
O583        O  0.60542536  0.26976003  0.21325945    -0.81500
O584        O  0.68104584  0.26786920  0.28970672    -0.75000
Al585      Al  0.60997994  0.30777401  0.25229684     1.90100
O586        O  0.66655459  0.25067133  0.22426312    -0.74100
O587        O  0.76925012  0.35288473  0.27801712    -0.74000
O588        O  0.75134353  0.33866984  0.21266660    -0.79600
O589        O  0.75142533  0.41501269  0.29094222    -0.77800
O590        O  0.67939720  0.34176353  0.25195488    -1.14000
O591        O  0.66658295  0.42048289  0.27936641    -0.73100
C592        C  0.62673977  0.39056214  0.29562704     0.97600
C593        C  0.62759537  0.24278608  0.20786069     0.94000
Al594      Al  0.71399445  0.30577085  0.25122423     1.55600
O595        O  0.60239066  0.35615051  0.22620377    -0.77800
C596        C  0.77732533  0.39168728  0.29546791     0.98100
C597        C  0.63267902  0.24233062  0.29472359     0.93000
O598        O  0.60231285  0.25189184  0.27851933    -0.83100
C599        C  0.50679702  0.49906632  0.07248836     0.85700
C600        C  0.53847321  0.47569564  0.08850160    -0.54500
C601        C  0.53950003  0.47886537  0.12166982     0.08700
C602        C  0.50925111  0.50470781  0.13586942     0.19600
C603        C  0.95609361  0.47359285  0.08860379    -0.55200
C604        C  0.95730425  0.47702771  0.12166563     0.08800
C605        C  0.53361787  0.06236132  0.08740995    -0.58400
C606        C  0.53371675  0.06488479  0.12049495     0.09300
H607        H  0.55768836  0.45723955  0.07593226     0.13900
H608        H  0.50972794  0.01382086  0.16389882    -0.00400
H609        H  0.91996209  0.45373803  0.07513590     0.14200
H610        H  0.55356777  0.09715277  0.07254436     0.13900
C611        C  0.99956246  0.00389196  0.42945738     0.85700
C612        C  0.53618832  0.06380476  0.41273676    -0.54500
C613        C  0.53557412  0.06385898  0.37967389     0.08700
C614        C  0.00212182  0.00379976  0.36600392     0.19600
C615        C  0.95288302  0.48078886  0.41611595    -0.55200
C616        C  0.95221330  0.48065672  0.38304383     0.08800
C617        C  0.53338549  0.48262062  0.41357054    -0.54800
C618        C  0.53285529  0.48112569  0.38046539     0.09300
H619        H  0.55710365  0.10023359  0.42603973     0.13900
H620        H  0.00321645  0.00341009  0.33899608    -0.00400
H621        H  0.91754425  0.46353250  0.43069627     0.14200
H622        H  0.55203504  0.46555102  0.42788458     0.13900
O623        O  0.89378947  0.15886956  0.79178359    -0.82500
C624        C  0.72498102  0.11271194  0.70701821     0.96800
O625        O  0.73257876  0.08267298  0.72492282    -0.71700
O626        O  0.81975997  0.08156153  0.71403689    -0.75300
Al627      Al  0.78658686  0.08945480  0.75212519     1.49000
C628        C  0.86828425  0.10085716  0.71073911     0.92100
O629        O  0.89973451  0.22853699  0.71324183    -0.81500
O630        O  0.82225860  0.23657468  0.78797909    -0.75000
Al631      Al  0.89210618  0.19161826  0.75236010     1.90100
O632        O  0.83900147  0.24999255  0.72194183    -0.74100
O633        O  0.73268413  0.15116441  0.77663907    -0.74000
O634        O  0.75202240  0.16174174  0.71084284    -0.79600
O635        O  0.74889884  0.08837016  0.79018798    -0.77800
O636        O  0.82274293  0.15935280  0.75131892    -1.14000
O637        O  0.83252553  0.08006932  0.77950265    -0.73100
C638        C  0.87147273  0.11002885  0.79622887     0.97600
C639        C  0.87893312  0.25612670  0.70670449     0.94000
Al640      Al  0.78945759  0.19663646  0.74953210     1.55600
O641        O  0.89902681  0.14075012  0.72691447    -0.77800
C642        C  0.72257697  0.11158750  0.79358799     0.98100
C643        C  0.87054566  0.26117559  0.79341194     0.93000
O644        O  0.90065386  0.24950942  0.77796524    -0.83100
C645        C  0.49229319  0.49455986  0.92787268     0.85700
C646        C  0.96644250  0.44302522  0.91203166    -0.54500
C647        C  0.96753415  0.44288580  0.87882460     0.08700
C648        C  0.49267523  0.49440310  0.86430764     0.19600
C649        C  0.54473898  0.02576120  0.91341883    -0.55200
C650        C  0.54451746  0.02385528  0.88028157     0.08800
C651        C  0.96641756  0.02431318  0.91290876    -0.54800
C652        C  0.96451001  0.02183862  0.87989625     0.09300
H653        H  0.94576545  0.40727128  0.92595100     0.13900
H654        H  0.49222637  0.49439159  0.83732192    -0.00400
H655        H  0.58043304  0.04573896  0.92727899     0.14200
H656        H  0.94946220  0.04474420  0.92571521     0.13900
C657        C  0.49656042  0.49416557  0.57193318     0.85700
C658        C  0.95981234  0.01202230  0.59038171    -0.54500
C659        C  0.96178650  0.01194701  0.62365669     0.08700
C660        C  0.49529141  0.49270734  0.63532625     0.19600
C661        C  0.55020268  0.02215838  0.58558836    -0.55200
C662        C  0.55056315  0.02329190  0.61867866     0.08800
C663        C  0.97563046  0.43493654  0.58980115    -0.54800
C664        C  0.97810252  0.43585771  0.62287177     0.09300
H665        H  0.93983109  0.02871781  0.57713098     0.13900
H666        H  0.49449971  0.49171287  0.66232626    -0.00400
H667        H  0.58559835  0.04042899  0.57109853     0.14200
H668        H  0.95762043  0.39794177  0.57687965     0.13900
C669        C  0.89083466  0.35677448  0.86337307    -0.27100
C670        C  0.94306569  0.39466823  0.85833366    -0.15100
C671        C  0.97131925  0.38748170  0.83281609     0.35500
C672        C  0.94654438  0.34348854  0.81242184    -0.26500
C673        C  0.89396797  0.30588695  0.81681893    -0.15800
C674        C  0.86595534  0.31229066  0.84292891     0.36600
N675        N  0.81271114  0.27368656  0.84876602    -0.90000
H676        H  0.86920054  0.36236759  0.88300136     0.17700
H677        H  0.96858451  0.33893580  0.79262592     0.17700
N678        N  0.52199725  0.42437900  0.82634168    -0.89000
H679        H  0.79769371  0.28455484  0.86869428     0.35100
H680        H  0.81211412  0.23888664  0.85512964     0.40200
H681        H  0.53671186  0.41523419  0.80553132     0.39800
H682        H  0.54346158  0.42284346  0.84593493     0.34700
C683        C  0.67751415  0.06201533  0.84363609    -0.27100
C684        C  0.67802133  0.09119641  0.81660173    -0.15100
C685        C  0.63480009  0.09872861  0.81108670     0.35500
C686        C  0.59272141  0.07759050  0.83286983    -0.26500
C687        C  0.59200934  0.04813191  0.85967137    -0.15800
C688        C  0.63482428  0.04016703  0.86518004     0.36600
N689        N  0.63428599  0.00890778  0.89203983    -0.90000
H690        H  0.71033341  0.05579893  0.84778731     0.17700
H691        H  0.55982856  0.08365499  0.82863018     0.17700
N692        N  0.63290253  0.12642443  0.78290599    -0.89000
H693        H  0.66875331  0.00696275  0.89265515     0.35100
H694        H  0.60423010  0.97068630  0.88813250     0.40200
H695        H  0.59880105  0.12910461  0.78282879     0.39800
H696        H  0.63131990  0.10419914  0.76242398     0.34700
C697        C  0.93543729  0.12019947  0.83894601    -0.27100
C698        C  0.89239654  0.08696048  0.81977193    -0.15100
C699        C  0.87250097  0.03203050  0.82168629     0.35500
C700        C  0.89643779  0.01199142  0.84184639    -0.26500
C701        C  0.93958014  0.04530390  0.86044318    -0.15800
C702        C  0.95916958  0.09996618  0.85915347     0.36600
N703        N  0.50265367  0.14187250  0.87621480    -0.90000
H704        H  0.95160880  0.16229528  0.83773060     0.17700
H705        H  0.88141067  0.96999415  0.84277986     0.17700
N706        N  0.82875383  0.99618499  0.80273559    -0.89000
H707        H  0.53410217  0.13573697  0.87110116     0.35100
H708        H  0.49336699  0.13471684  0.90086592     0.40200
H709        H  0.79985095  0.97038352  0.81859912     0.39800
H710        H  0.84034435  0.97441493  0.78791096     0.34700
C711        C  0.95768933  0.32601141  0.67967645    -0.27100
C712        C  0.90325635  0.29844008  0.68242389    -0.15100
C713        C  0.87342619  0.31468151  0.66404633     0.35500
C714        C  0.89885806  0.35910654  0.64418317    -0.26500
C715        C  0.95324937  0.38767837  0.64258488    -0.15800
C716        C  0.98283192  0.37066609  0.66031213     0.36600
N717        N  0.51127720  0.36462864  0.62458973    -0.90000
H718        H  0.98100104  0.31413313  0.69376146     0.17700
H719        H  0.87626963  0.37221416  0.63037828     0.17700
N720        N  0.81759364  0.28626887  0.66575765    -0.89000
H721        H  0.54143619  0.40183918  0.63066618     0.35100
H722        H  0.50413679  0.36388916  0.59972203     0.40200
H723        H  0.80534744  0.24870683  0.65635859     0.39800
H724        H  0.80163655  0.30352457  0.65092276     0.34700
C725        C  0.60790525  0.01432305  0.65789540    -0.27100
C726        C  0.59843657  0.04728082  0.63832125    -0.15100
C727        C  0.63199918  0.10181406  0.63973535     0.35500
C728        C  0.67372571  0.12236010  0.66185796    -0.26500
C729        C  0.68274841  0.08931328  0.68229948    -0.15800
C730        C  0.64943576  0.03411612  0.67943305     0.36600
N731        N  0.65559792  0.99655547  0.69821210    -0.90000
H732        H  0.58204004  0.97242911  0.65682248     0.17700
H733        H  0.69869237  0.16438554  0.66347867     0.17700
N734        N  0.62215121  0.13615239  0.61992899    -0.89000
H735        H  0.65105861  0.00236643  0.72287622     0.35100
H736        H  0.69236049  0.00068848  0.69362741     0.40200
H737        H  0.62811002  0.12926807  0.59569757     0.39800
H738        H  0.64918684  0.17525870  0.62485048     0.34700
C739        C  0.95920198  0.05591541  0.67541932    -0.27100
C740        C  0.93535732  0.03281002  0.64579888    -0.15100
C741        C  0.88656801  0.02880148  0.63862530     0.35500
C742        C  0.86498536  0.05105456  0.66012621    -0.26500
C743        C  0.89039999  0.07603877  0.68894698    -0.15800
C744        C  0.93726073  0.07699223  0.69710625     0.36600
N745        N  0.96212235  0.09864689  0.72771863    -0.90000
H746        H  0.50833802  0.08072918  0.66929496     0.17700
H747        H  0.82828187  0.04905062  0.65432434     0.17700
N748        N  0.86156580  0.49408232  0.61312900    -0.89000
H749        H  0.51445068  0.12904861  0.71411349     0.35100
H750        H  0.93722500  0.07515615  0.74615381     0.40200
H751        H  0.85483482  0.45604529  0.61721324     0.39800
H752        H  0.82330405  0.00172280  0.60853116     0.34700
C753        C  0.01480209  0.04469894  0.48684722    -0.27100
C754        C  0.99523056  0.99999538  0.46664675    -0.15100
C755        C  0.47894756  0.45869458  0.48059230     0.35500
C756        C  0.47646626  0.45433959  0.51443010    -0.26500
C757        C  0.98885298  0.99111089  0.53586738    -0.15800
C758        C  0.01157809  0.04069777  0.52080993     0.36600
N759        N  0.03197306  0.08765629  0.54006069    -0.90000
H760        H  0.03243383  0.08358280  0.47700010     0.17700
H761        H  0.45631623  0.41525820  0.52390485     0.17700
N762        N  0.45543050  0.41184141  0.46118080    -0.89000
H763        H  0.01261351  0.10810501  0.53364058     0.35100
H764        H  0.07132973  0.11088217  0.53424680     0.40200
H765        H  0.41598423  0.39073908  0.46729824     0.39800
H766        H  0.47265339  0.38913774  0.46709142     0.34700
C767        C  0.52398877  0.47288902  0.01575337    -0.27100
C768        C  0.50208710  0.49728854  0.03514941    -0.15100
C769        C  0.97822163  0.02219177  0.01876244     0.35500
C770        C  0.97484486  0.01968133  0.98492142    -0.26500
C771        C  0.49443639  0.49356621  0.96535845    -0.15800
C772        C  0.52014751  0.47017603  0.98182026     0.36600
N773        N  0.54278141  0.44263092  0.96527090    -0.90000
H774        H  0.54420907  0.45456065  0.02632454     0.17700
H775        H  0.95215503  0.03545822  0.97465694     0.17700
N776        N  0.95185733  0.04654838  0.03505873    -0.89000
H777        H  0.57251959  0.46758181  0.94973950     0.35100
H778        H  0.51441186  0.41091878  0.95230028     0.40200
H779        H  0.95619744  0.04932389  0.06006498     0.39800
H780        H  0.91203218  0.02327181  0.03081481     0.34700
C781        C  0.59192555  0.48745506  0.33555079    -0.27100
C782        C  0.55839711  0.45757201  0.36053432    -0.15100
C783        C  0.54813814  0.40568263  0.36494562     0.35500
C784        C  0.57103244  0.38428887  0.34389688    -0.26500
C785        C  0.60452622  0.41420351  0.31860339    -0.15800
C786        C  0.61500712  0.46654302  0.31466986     0.36600
N787        N  0.64779498  0.49839861  0.28883491    -0.90000
H788        H  0.59404784  0.02382251  0.32807717     0.17700
H789        H  0.56229445  0.34411117  0.34724204     0.17700
N790        N  0.00778721  0.36758833  0.38750541    -0.89000
H791        H  0.66970253  0.02818045  0.29262865     0.35100
H792        H  0.62615674  0.50987107  0.27440316     0.40200
H793        H  0.02583732  0.35238930  0.40225114     0.39800
H794        H  0.97703320  0.33628443  0.37550147     0.34700
C795        C  0.82597013  0.45176813  0.34153165    -0.27100
C796        C  0.81902316  0.41073768  0.32042304    -0.15100
C797        C  0.85388040  0.39035504  0.32243305     0.35500
C798        C  0.89648918  0.41409844  0.34342768    -0.26500
C799        C  0.90418992  0.45602758  0.36356573    -0.15800
C800        C  0.86792059  0.47461631  0.36315489     0.36600
N801        N  0.86918717  0.01923092  0.37857593    -0.90000
H802        H  0.79923650  0.46720958  0.34078541     0.17700
H803        H  0.92406907  0.39965511  0.34419449     0.17700
N804        N  0.84669790  0.34617923  0.30295722    -0.89000
H805        H  0.87191404  0.04853709  0.36306428     0.35100
H806        H  0.90338215  0.03604478  0.39203027     0.40200
H807        H  0.81328244  0.31339352  0.31157482     0.39800
H808        H  0.87729357  0.33822991  0.30622303     0.34700
C809        C  0.61422806  0.14593349  0.36226586    -0.27100
C810        C  0.56054353  0.11185403  0.36003810    -0.15100
C811        C  0.53098080  0.12218185  0.33786637     0.35500
C812        C  0.55548294  0.16529390  0.31740888    -0.26500
C813        C  0.60954760  0.19910026  0.31861170    -0.15800
C814        C  0.63923554  0.18975112  0.34175887     0.36600
N815        N  0.69430134  0.22421501  0.34429692    -0.90000
H816        H  0.63671435  0.13767842  0.37956277     0.17700
H817        H  0.53169467  0.17169515  0.30012728     0.17700
N818        N  0.97435182  0.07854818  0.33244561    -0.89000
H819        H  0.71020393  0.21105584  0.36208462     0.35100
H820        H  0.69991517  0.26066770  0.35228240     0.40200
H821        H  0.96880227  0.06336661  0.30880269     0.39800
H822        H  0.95426725  0.09960387  0.33478893     0.34700
C823        C  0.63785864  0.44653200  0.15996801    -0.27100
C824        C  0.60929854  0.41706273  0.18689912    -0.15100
C825        C  0.55802657  0.40812219  0.19181200     0.35500
C826        C  0.53622555  0.42764047  0.16971244    -0.26500
C827        C  0.56448849  0.45695106  0.14284614    -0.15800
C828        C  0.61601102  0.46686296  0.13790810     0.36600
N829        N  0.64626730  0.49842948  0.11108663    -0.90000
H830        H  0.67724937  0.45379908  0.15617687     0.17700
H831        H  0.49672461  0.41995256  0.17378956     0.17700
N832        N  0.52817229  0.38044929  0.21975602    -0.89000
H833        H  0.68330280  0.50192417  0.11092962     0.35100
H834        H  0.65151400  0.53614031  0.11471980     0.40200
H835        H  0.49381108  0.34816996  0.21172042     0.39800
H836        H  0.51830886  0.40524492  0.23282754     0.34700
C837        C  0.85926551  0.46219688  0.18681323    -0.27100
C838        C  0.82196501  0.40885199  0.18416092    -0.15100
C839        C  0.82852291  0.37838871  0.15934050     0.35500
C840        C  0.87210709  0.40155486  0.13869524    -0.26500
C841        C  0.90988927  0.45437677  0.14234927    -0.15800
C842        C  0.90275940  0.48495361  0.16628376     0.36600
N843        N  0.93496387  0.03705750  0.16818630    -0.90000
H844        H  0.85524243  0.48671143  0.20527748     0.17700
H845        H  0.87715396  0.37776645  0.12016199     0.17700
N846        N  0.79180449  0.32420074  0.15421818    -0.89000
H847        H  0.92399805  0.05366506  0.18721594     0.35100
H848        H  0.93351600  0.05550832  0.14692550     0.40200
H849        H  0.75509707  0.32050104  0.15061061     0.39800
H850        H  0.79084126  0.30311187  0.17478233     0.34700
C851        C  0.56862718  0.19554310  0.16130937    -0.27100
C852        C  0.60707917  0.20010181  0.18307111    -0.15100
C853        C  0.62360726  0.16205021  0.18182314     0.35500
C854        C  0.60006252  0.11972383  0.16022591    -0.26500
C855        C  0.56034163  0.11410417  0.13950595    -0.15800
C856        C  0.54474174  0.15293485  0.13967340     0.36600
N857        N  0.01377223  0.15102670  0.11346602    -0.90000
H858        H  0.55584370  0.22455812  0.16166643     0.17700
H859        H  0.61226741  0.09022763  0.16014894     0.17700
N860        N  0.66324612  0.16505021  0.20303121    -0.89000
H861        H  0.98366125  0.15279725  0.12605557     0.35100
H862        H  0.99588765  0.11656750  0.09991055     0.40200
H863        H  0.69333779  0.16626085  0.18872412     0.39800
H864        H  0.64754595  0.13091059  0.21690509     0.34700
O865        O  0.59956359  0.83853868  0.28719091    -0.82500
C866        C  0.77320389  0.88336485  0.20512061     0.96800
O867        O  0.76443396  0.91497300  0.22154097    -0.71700
O868        O  0.67596723  0.91369639  0.21007523    -0.75300
Al869      Al  0.70903281  0.90882407  0.24855065     1.49000
C870        C  0.62739331  0.89266420  0.20638394     0.92100
O871        O  0.60141417  0.76601834  0.20991682    -0.81500
O872        O  0.67651852  0.76750052  0.28809660    -0.75000
Al873      Al  0.60501605  0.80445576  0.24860913     1.90100
O874        O  0.66160113  0.74654343  0.22288267    -0.74100
O875        O  0.76488299  0.85164715  0.27501266    -0.74000
O876        O  0.74650295  0.83475245  0.20996718    -0.79600
O877        O  0.74646496  0.91349971  0.28723001    -0.77800
O878        O  0.67441538  0.83893029  0.24866851    -1.14000
O879        O  0.66109130  0.91762390  0.27536402    -0.73100
C880        C  0.62104855  0.88752777  0.29142086     0.97600
C881        C  0.62310236  0.73827642  0.20582227     0.94000
Al882      Al  0.70927224  0.80325203  0.24896400     1.55600
O883        O  0.59717823  0.85238801  0.22212856    -0.77800
C884        C  0.77314159  0.89107235  0.29183766     0.98100
C885        C  0.62805971  0.74127048  0.29266384     0.93000
O886        O  0.59746372  0.74907169  0.27541600    -0.83100
C887        C  0.50589487  0.00609741  0.07348905     0.85700
C888        C  0.53552722  0.98053639  0.08943218    -0.54500
C889        C  0.53677802  0.98362023  0.12258397     0.08700
C890        C  0.50839210  0.01133594  0.13693627     0.19600
C891        C  0.95472333  0.97226577  0.08778837    -0.55200
C892        C  0.95433942  0.97506563  0.12079011     0.08800
C893        C  0.53235876  0.55551040  0.08628834    -0.58400
C894        C  0.53265472  0.55819934  0.11940860     0.09300
H895        H  0.55368776  0.96108284  0.07680497     0.13900
H896        H  0.51055658  0.50729177  0.16282512    -0.00400
H897        H  0.91925105  0.95223538  0.07369084     0.14200
H898        H  0.54915144  0.59017746  0.07113797     0.13900
C899        C  0.00784275  0.50645573  0.43069617     0.85700
C900        C  0.53522395  0.56670787  0.41283655    -0.54500
C901        C  0.53463177  0.56509277  0.37967208     0.08700
C902        C  0.00619687  0.50565634  0.36726084     0.19600
C903        C  0.94571687  0.98074240  0.41346545    -0.55200
C904        C  0.94723811  0.98088111  0.38036045     0.08800
C905        C  0.53084519  0.97821980  0.41147052    -0.54800
C906        C  0.53030402  0.97846829  0.37830249     0.09300
H907        H  0.55381740  0.60379553  0.42566293     0.13900
H908        H  0.00528375  0.50485369  0.34026026    -0.00400
H909        H  0.90950743  0.96470935  0.42713190     0.14200
H910        H  0.54854443  0.95948004  0.42509100     0.13900
O911        O  0.89694191  0.66092638  0.79104255    -0.82500
C912        C  0.72656514  0.61176800  0.70719689     0.96800
O913        O  0.73597744  0.58200686  0.72417780    -0.71700
O914        O  0.82418047  0.58249418  0.71311108    -0.75300
Al915      Al  0.79044200  0.58963997  0.75123956     1.49000
C916        C  0.87283410  0.60230425  0.71009382     0.92100
O917        O  0.90165036  0.72900149  0.71253991    -0.81500
O918        O  0.82346538  0.73534192  0.78725084    -0.75000
Al919      Al  0.89482171  0.69288461  0.75162223     1.90100
O920        O  0.83987688  0.74917582  0.72109492    -0.74100
O921        O  0.73513823  0.64994006  0.77610923    -0.74000
O922        O  0.75352778  0.66081520  0.71057667    -0.79600
O923        O  0.75244917  0.58776972  0.78938710    -0.77800
O924        O  0.82543796  0.65950834  0.75048162    -1.14000
O925        O  0.83716309  0.58151663  0.77857835    -0.73100
C926        C  0.87562743  0.61219620  0.79544041     0.97600
C927        C  0.87973021  0.75537560  0.70573922     0.94000
Al928      Al  0.79116530  0.69581005  0.74890533     1.55600
O929        O  0.90288325  0.64250005  0.72630107    -0.77800
C930        C  0.72575051  0.61056125  0.79300620     0.98100
C931        C  0.87142370  0.76011951  0.79336272     0.93000
O932        O  0.90245492  0.75047813  0.77731197    -0.83100
C933        C  0.49019187  0.00028896  0.92921588     0.85700
C934        C  0.96381451  0.93991338  0.91416521    -0.54500
C935        C  0.96212089  0.93774237  0.88106524     0.08700
C936        C  0.48989962  0.99760821  0.86572065     0.19600
C937        C  0.54698929  0.52159020  0.91230315    -0.55200
C938        C  0.54720147  0.52076024  0.87913476     0.08800
C939        C  0.97067359  0.52805877  0.91222931    -0.54800
C940        C  0.97140706  0.52776658  0.87921014     0.09300
H941        H  0.94566064  0.90498233  0.92904290     0.13900
H942        H  0.48931212  0.99610614  0.83872066    -0.00400
H943        H  0.58244311  0.54185977  0.92635220     0.14200
H944        H  0.95190842  0.54686349  0.92489074     0.13900
C945        C  0.49537460  0.99128122  0.57080938     0.85700
C946        C  0.96645089  0.51314592  0.59131190    -0.54500
C947        C  0.96821798  0.51339326  0.62459472     0.08700
C948        C  0.49654275  0.99260925  0.63419692     0.19600
C949        C  0.55094400  0.52230078  0.58750613    -0.55200
C950        C  0.55002442  0.52189985  0.62065176     0.08800
C951        C  0.96721761  0.93267299  0.58832402    -0.54800
C952        C  0.97048657  0.93352356  0.62133546     0.09300
H953        H  0.94556810  0.52876443  0.57794062     0.13900
H954        H  0.49698925  0.99270407  0.66120653    -0.00400
H955        H  0.58688723  0.54050853  0.57354469     0.14200
H956        H  0.94992839  0.89577778  0.57529410     0.13900
C957        C  0.88471587  0.85589391  0.86171530    -0.27100
C958        C  0.93874522  0.88854898  0.86195118    -0.15100
C959        C  0.97042663  0.87671189  0.84179880     0.35500
C960        C  0.94739061  0.83389857  0.82040287    -0.26500
C961        C  0.89300900  0.80217916  0.81868029    -0.15800
C962        C  0.86136572  0.81243133  0.84042221     0.36600
N963        N  0.80588971  0.77936900  0.84062916    -0.90000
H964        H  0.86069811  0.86521694  0.87753944     0.17700
H965        H  0.97234917  0.82612105  0.80446124     0.17700
N966        N  0.52383732  0.92204603  0.83675752    -0.89000
H967        H  0.78851341  0.79309538  0.85751418     0.35100
H968        H  0.79808248  0.74241308  0.84863275     0.40200
H969        H  0.53222377  0.93657334  0.81307222     0.39800
H970        H  0.54378167  0.90135131  0.84089837     0.34700
C971        C  0.68135162  0.56125223  0.84330686    -0.27100
C972        C  0.68146289  0.58993753  0.81613733    -0.15100
C973        C  0.63794768  0.59674332  0.81053455     0.35500
C974        C  0.59548845  0.57481141  0.83184968    -0.26500
C975        C  0.59500535  0.54577960  0.85881739    -0.15800
C976        C  0.63853704  0.53906416  0.86477410     0.36600
N977        N  0.63871301  0.50883606  0.89202400    -0.90000
H978        H  0.71456931  0.55576582  0.84764404     0.17700
H979        H  0.56243321  0.58036707  0.82704509     0.17700
N980        N  0.63574732  0.62438287  0.78258159    -0.89000
H981        H  0.67371362  0.50796659  0.89298357     0.35100
H982        H  0.60938287  0.47020706  0.88837718     0.40200
H983        H  0.63031573  0.65543244  0.79059202     0.39800
H984        H  0.60338036  0.59890483  0.76883498     0.34700
C985        C  0.94070357  0.62437569  0.83775568    -0.27100
C986        C  0.89741003  0.59024789  0.81901620    -0.15100
C987        C  0.87818619  0.53551517  0.82129042     0.35500
C988        C  0.90297123  0.51645371  0.84138252    -0.26500
C989        C  0.94624623  0.55056266  0.85956652    -0.15800
C990        C  0.96531340  0.60505667  0.85790291     0.36600
N991        N  0.50944796  0.63801448  0.87623422    -0.90000
H992        H  0.95637533  0.66637961  0.83621688     0.17700
H993        H  0.88841920  0.47455856  0.84265386     0.17700
N994        N  0.83417117  0.49887345  0.80284441    -0.89000
H995        H  0.53956783  0.63021719  0.87024265     0.35100
H996        H  0.50094671  0.63058422  0.90095426     0.40200
H997        H  0.80583041  0.47320975  0.81904574     0.39800
H998        H  0.84577704  0.47709464  0.78804058     0.34700
C999        C  0.95672301  0.82926778  0.68070041    -0.27100
C1000       C  0.90271848  0.79653517  0.68099862    -0.15100
C1001       C  0.87137523  0.80645013  0.65970530     0.35500
C1002       C  0.89462722  0.85092265  0.63980364    -0.26500
C1003       C  0.94836109  0.88532033  0.64094740    -0.15800
C1004       C  0.97974431  0.87364555  0.66111041     0.36600
N1005       N  0.51996855  0.86821732  0.62913352    -0.90000
H1006       H  0.98102060  0.82155739  0.69682950     0.17700
H1007       H  0.87070679  0.85952644  0.62390886     0.17700
N1008       N  0.81624577  0.77147146  0.65851844    -0.89000
H1009       H  0.54780180  0.87719040  0.64720118     0.35100
H1010       H  0.53443954  0.90050134  0.61377239     0.40200
H1011       H  0.81049879  0.73510289  0.65023835     0.39800
H1012       H  0.79888907  0.78429355  0.64150592     0.34700
C1013       C  0.60049748  0.51493284  0.66568338    -0.27100
C1014       C  0.59691991  0.54560031  0.64118931    -0.15100
C1015       C  0.63585815  0.59836943  0.63812908     0.35500
C1016       C  0.67833039  0.61911140  0.65961702    -0.26500
C1017       C  0.68232087  0.58809203  0.68413149    -0.15800
C1018       C  0.64230206  0.53504674  0.68696261     0.36600
N1019       N  0.64165714  0.50052409  0.71163817    -0.90000
H1020       H  0.57015408  0.47464570  0.66849468     0.17700
H1021       H  0.70810213  0.65973379  0.65738191     0.17700
N1022       N  0.63134187  0.63094668  0.61391921    -0.89000
H1023       H  0.64305372  0.51712966  0.73449758     0.35100
H1024       H  0.67350046  0.49441838  0.70833367     0.40200
H1025       H  0.66303169  0.66885623  0.61501566     0.39800
H1026       H  0.59829730  0.63411937  0.61953720     0.34700
C1027       C  0.96716372  0.56154748  0.67448851    -0.27100
C1028       C  0.94148237  0.53416845  0.64631986    -0.15100
C1029       C  0.89089154  0.52602206  0.64015489     0.35500
C1030       C  0.86884128  0.54838447  0.66122857    -0.26500
C1031       C  0.89587225  0.57777867  0.68862247    -0.15800
C1032       C  0.94503275  0.58298499  0.69577061     0.36600
N1033       N  0.97214453  0.60927943  0.72496170    -0.90000
H1034       H  0.51151890  0.58090062  0.67175978     0.17700
H1035       H  0.83052946  0.54300565  0.65618994     0.17700
N1036       N  0.85831973  0.00099552  0.61016262    -0.89000
H1037       H  0.51841152  0.62721218  0.71782905     0.35100
H1038       H  0.95004881  0.58709881  0.74471520     0.40200
H1039       H  0.84859874  0.96174540  0.61282575     0.39800
H1040       H  0.82510349  0.49183761  0.61213307     0.34700
C1041       C  0.02222072  0.54710117  0.48810339    -0.27100
C1042       C  0.00545983  0.50264181  0.46791322    -0.15100
C1043       C  0.47924029  0.95424015  0.47954217     0.35500
C1044       C  0.47679074  0.95007425  0.51348687    -0.26500
C1045       C  0.99813884  0.49346036  0.53715947    -0.15800
C1046       C  0.01870125  0.54295698  0.52209566     0.36600
N1047       N  0.03651340  0.58966234  0.54136537    -0.90000
H1048       H  0.03745996  0.58575852  0.47815662     0.17700
H1049       H  0.45876019  0.91112535  0.52325337     0.17700
N1050       N  0.45737945  0.90736068  0.46015339    -0.89000
H1051       H  0.01546917  0.60829250  0.53473157     0.35100
H1052       H  0.07566474  0.61460051  0.53578597     0.40200
H1053       H  0.41803882  0.88494416  0.46625234     0.39800
H1054       H  0.47596629  0.88597275  0.46615265     0.34700
C1055       C  0.52050244  0.97725644  0.01694230    -0.27100
C1056       C  0.50154779  0.00450687  0.03617833    -0.15100
C1057       C  0.98014900  0.52415999  0.01840906     0.35500
C1058       C  0.97783648  0.52280373  0.98445193    -0.26500
C1059       C  0.49294489  0.00013606  0.96658736    -0.15800
C1060       C  0.51661600  0.97463359  0.98306456     0.36600
N1061       N  0.53738125  0.94527375  0.96660128    -0.90000
H1062       H  0.53831400  0.95655470  0.02755445     0.17700
H1063       H  0.95893963  0.54251344  0.97403397     0.17700
N1064       N  0.95602620  0.55076273  0.03471030    -0.89000
H1065       H  0.56707933  0.96909755  0.95066924     0.35100
H1066       H  0.50815185  0.91349701  0.95417699     0.40200
H1067       H  0.95782883  0.55044015  0.05982953     0.39800
H1068       H  0.91644250  0.53067339  0.02911464     0.34700
C1069       C  0.58609931  0.98390322  0.33160225    -0.27100
C1070       C  0.55410601  0.95437995  0.35728464    -0.15100
C1071       C  0.54366491  0.90236753  0.36136584     0.35500
C1072       C  0.56606421  0.88103874  0.33993138    -0.26500
C1073       C  0.59860412  0.91086414  0.31429684    -0.15800
C1074       C  0.60808549  0.96276482  0.31006103     0.36600
N1075       N  0.63871151  0.99386128  0.28330320    -0.90000
H1076       H  0.60007408  0.52744109  0.33201068     0.17700
H1077       H  0.55771982  0.84097914  0.34326675     0.17700
N1078       N  0.98255996  0.85952249  0.37558828    -0.89000
H1079       H  0.67841836  0.53206275  0.29907922     0.35100
H1080       H  0.61564299  0.00426807  0.26945991     0.40200
H1081       H  0.99083862  0.86390122  0.40042125     0.39800
H1082       H  0.97085916  0.82047470  0.36971717     0.34700
C1083       C  0.82239690  0.95291426  0.33707693    -0.27100
C1084       C  0.81572600  0.91169308  0.31621303    -0.15100
C1085       C  0.85154091  0.89245799  0.31795710     0.35500
C1086       C  0.89364718  0.91620828  0.33928767    -0.26500
C1087       C  0.90049628  0.95757276  0.35967028    -0.15800
C1088       C  0.86429849  0.97624021  0.35873173     0.36600
N1089       N  0.87279951  0.51712628  0.38348363    -0.90000
H1090       H  0.79537744  0.96799819  0.33618732     0.17700
H1091       H  0.92139186  0.90200048  0.34022724     0.17700
N1092       N  0.84586049  0.84941599  0.29787002    -0.89000
H1093       H  0.87593533  0.54697551  0.36832440     0.35100
H1094       H  0.90668712  0.53331635  0.39721823     0.40200
H1095       H  0.81330583  0.81567246  0.30636814     0.39800
H1096       H  0.87746116  0.84288249  0.30063228     0.34700
C1097       C  0.61007538  0.65090580  0.36366019    -0.27100
C1098       C  0.55805944  0.61232742  0.35914100    -0.15100
C1099       C  0.52904760  0.61805411  0.33424946     0.35500
C1100       C  0.55270074  0.66088851  0.31350852    -0.26500
C1101       C  0.60526359  0.69886554  0.31701358    -0.15800
C1102       C  0.63408116  0.69444069  0.34286838     0.36600
N1103       N  0.68723650  0.73382520  0.34796069    -0.90000
H1104       H  0.63220039  0.64649501  0.38305034     0.17700
H1105       H  0.52961374  0.66373237  0.29412203     0.17700
N1106       N  0.97532345  0.57848018  0.33351261    -0.89000
H1107       H  0.70281841  0.72423818  0.36777636     0.35100
H1108       H  0.68742419  0.76868677  0.35415549     0.40200
H1109       H  0.96943356  0.56266080  0.31002689     0.39800
H1110       H  0.95476024  0.59906693  0.33578233     0.34700
C1111       C  0.63268058  0.94553934  0.15779417    -0.27100
C1112       C  0.60453344  0.91607050  0.18478393    -0.15100
C1113       C  0.55476946  0.91026575  0.19160074     0.35500
C1114       C  0.53346295  0.93180474  0.17044453    -0.26500
C1115       C  0.56121031  0.96063493  0.14329236    -0.15800
C1116       C  0.61173784  0.96847939  0.13714454     0.36600
N1117       N  0.64200980  0.00069633  0.11053141    -0.90000
H1118       H  0.67116563  0.95090441  0.15291975     0.17700
H1119       H  0.49490664  0.92628459  0.17532319     0.17700
N1120       N  0.52647967  0.88370272  0.22041615    -0.89000
H1121       H  0.67835361  0.00261798  0.10945292     0.35100
H1122       H  0.64893177  0.03877413  0.11521724     0.40200
H1123       H  0.49048325  0.88255906  0.22156254     0.39800
H1124       H  0.54765341  0.90584881  0.24046302     0.34700
C1125       C  0.85454765  0.95857149  0.18486631    -0.27100
C1126       C  0.81733778  0.90525973  0.18155488    -0.15100
C1127       C  0.82438802  0.87546472  0.15654934     0.35500
C1128       C  0.86844823  0.89922584  0.13634041    -0.26500
C1129       C  0.90611135  0.95197876  0.14065315    -0.15800
C1130       C  0.89843976  0.98219669  0.16466264     0.36600
N1131       N  0.93901784  0.53963254  0.16941748    -0.90000
H1132       H  0.84984492  0.98221759  0.20363566     0.17700
H1133       H  0.87401667  0.87594512  0.11768492     0.17700
N1134       N  0.78773248  0.82142242  0.15084681    -0.89000
H1135       H  0.95411617  0.54663150  0.19294296     0.35100
H1136       H  0.91850359  0.56010495  0.16677074     0.40200
H1137       H  0.75113771  0.81790434  0.14706610     0.39800
H1138       H  0.78623276  0.79985005  0.17128674     0.34700
C1139       C  0.56484832  0.68921553  0.15929499    -0.27100
C1140       C  0.60267191  0.69442373  0.18178548    -0.15100
C1141       C  0.61886266  0.65611384  0.18185706     0.35500
C1142       C  0.59636623  0.61353878  0.16036011    -0.26500
C1143       C  0.55767053  0.60755150  0.13858529    -0.15800
C1144       C  0.54171019  0.64613375  0.13791229     0.36600
N1145       N  0.99976071  0.63925890  0.12054436    -0.90000
H1146       H  0.55202033  0.71817695  0.15881506     0.17700
H1147       H  0.60871816  0.58418724  0.16113454     0.17700
N1148       N  0.65716597  0.65915955  0.20425834    -0.89000
H1149       H  0.97035924  0.63637139  0.13620338     0.35100
H1150       H  0.98378892  0.60464768  0.10701976     0.40200
H1151       H  0.68790365  0.65993462  0.19089834     0.39800
H1152       H  0.64048489  0.62521975  0.21834036     0.34700
loop_ 
_geom_bond_atom_site_label_1 
_geom_bond_atom_site_label_2 
_geom_bond_distance 
_geom_bond_site_symmetry_2 
_ccdc_geom_bond_type 
O1           C16   1.264       .  A
O1           Al9   1.911       .  S
C2           O12   1.261       .  A
C2            O3   1.261       .  A
C2          C262   1.486       .  S
O3           Al5   1.894       .  S
O4            C6   1.263       .  A
O4           Al5   1.915       .  S
Al5          O13   1.911       .  S
Al5          O15   1.903       .  S
Al5          O14   1.784       .  S
C6           O19   1.258       .  A
C6          C248   1.487       .  S
O7           C17   1.263       .  A
O7           Al9   1.907       .  S
O8           C21   1.261       .  A
O8          Al18   1.912       .  S
Al9          O22   1.893       .  S
Al9          O19   1.894       .  S
Al9          O14   1.785       .  S
O10          C17   1.260       .  A
O10         Al18   1.899       .  S
O11          C20   1.259       .  A
O11         Al18   1.897       .  S
O12         Al18   1.910       .  S
O13          C20   1.264       .  A
O14         Al18   1.789       .  S
O15          C16   1.261       .  A
C16         C209   1.488       .  S
C17         C276   1.484       .  S
C20         C220   1.490       .  S
C21          O22   1.260       .  A
C21         C237   1.486       .  S
C23          C24   1.553       .  S
C23         C317   1.546       .  S
C23         C603   1.543   1_455  S
C23         C192   1.541       .  S
C24          H31   1.080       .  S
C24          C25   1.365       .  D
C25          C26   1.534       .  S
C25         C251   1.481       .  S
C26         C318   1.532       .  S
C26         C604   1.534   1_455  S
C26         H320   1.111       .  S
C27         C599   1.543       .  S
C27          H33   1.086       .  S
C27          C28   1.363       .  D
C28         C602   1.533       .  S
C28         C265   1.485       .  S
C29         C311   1.545       .  S
C29          H34   1.086       .  S
C29          C30   1.364       .  D
C30         C314   1.533       .  S
C30         C279   1.484       .  S
H32         C314   1.111       .  S
C35         C612   1.551       .  S
C35         C905   1.543   1_545  S
C35         C327   1.541   1_545  S
C35         C178   1.530       .  S
C36         C611   1.554   1_455  S
C36          H43   1.081       .  S
C36          C37   1.365       .  D
C37         C614   1.532       .  S
C37         C234   1.482       .  S
C38         C613   1.527       .  S
C38         C906   1.533   1_545  S
C38         C328   1.530   1_545  S
C38          H44   1.111       .  S
C39         C323   1.543       .  S
C39          H45   1.086       .  S
C39          C40   1.362       .  D
C40         C326   1.532       .  S
C40         C223   1.480       .  S
C41         C899   1.544       .  S
C41          H46   1.086       .  S
C41          C42   1.365       .  D
C42         C902   1.532       .  S
C42         C206   1.481       .  S
O47          C62   1.263       .  A
O47         Al55   1.903       .  S
C48          O58   1.264       .  A
C48          O49   1.260       .  A
C48         C153   1.481       .  S
O49         Al51   1.900       .  S
O50          C52   1.261       .  A
O50         Al51   1.911       .  S
Al51         O59   1.906       .  S
Al51         O61   1.900       .  S
Al51         O60   1.790       .  S
C52          O65   1.257       .  A
C52         C167   1.485       .  S
O53          C63   1.263       .  A
O53         Al55   1.906       .  S
O54          C67   1.264       .  A
O54         Al64   1.921       .  S
Al55         O68   1.896       .  S
Al55         O65   1.888       .  S
Al55         O60   1.787       .  S
O56          C63   1.260       .  A
O56         Al64   1.902       .  S
O57          C66   1.258       .  A
O57         Al64   1.897       .  S
O58         Al64   1.909       .  S
O59          C66   1.261       .  A
O60         Al64   1.790       .  S
O61          C62   1.261       .  A
C62         C122   1.487       .  S
C63         C136   1.489       .  S
C66         C108   1.482       .  S
C67          O68   1.260       .  A
C67          C97   1.489       .  S
C69         C646   1.547       .  S
C69         C939   1.552       .  S
C69         C361   1.543   1_655  S
C69         C195   1.542       .  S
C70         C645   1.547       .  S
C70          H77   1.085       .  S
C70          C71   1.367       .  D
C71         C648   1.534       .  S
C71          C94   1.490       .  S
C72         C647   1.531       .  S
C72         C940   1.526       .  S
C72         C362   1.532   1_655  S
C72          H78   1.111       .  S
C73         C357   1.543   1_445  S
C73          H79   1.085       .  S
C73          C74   1.365       .  D
C74         C360   1.532   1_445  S
C74         C111   1.482       .  S
C75         C933   1.555       .  S
C75          H80   1.080       .  S
C75          C76   1.363       .  D
C76         C936   1.527   1_545  S
C76         C125   1.474       .  S
C81         C946   1.545       .  S
C81         C663   1.549       .  S
C81         C373   1.538   1_655  S
C81        C1045   1.536       .  S
C82         C945   1.543   1_545  S
C82          H89   1.086       .  S
C82          C83   1.365       .  D
C83         C948   1.534   1_545  S
C83         C164   1.482       .  S
C84         C947   1.540   1_455  S
C84         C664   1.533   1_455  S
C84         C374   1.536       .  S
C84          H90   1.110       .  S
C85         C369   1.541   1_445  S
C85          H91   1.086       .  S
C85          C86   1.359       .  D
C86         C372   1.536   1_445  S
C86         C150   1.479       .  S
C87         C657   1.552       .  S
C87          H92   1.080       .  S
C87          C88   1.360       .  D
C88         C660   1.526       .  S
C88         C139   1.474       .  S
C93          C94   1.406       .  A
C93          C98   1.413       .  A
C93         H100   1.083       .  S
C94          C95   1.410       .  A
C95          C96   1.401       .  A
C95         N678   1.438       .  S
C96          C97   1.407       .  A
C96         H101   1.084       .  S
C97          C98   1.413       .  A
C98          N99   1.437       .  S
N99         H103   1.046       .  S
N99         H104   1.046       .  S
N102        C671   1.438   1_455  S
N102        H105   1.046       .  S
N102        H106   1.045       .  S
C107        C108   1.404       .  A
C107        C112   1.405       .  A
C107        H114   1.084       .  S
C108        C109   1.414       .  A
C109        C110   1.400       .  A
C109        N116   1.433       .  S
C110        C111   1.400       .  A
C110        H115   1.084       .  S
C111        C112   1.410       .  A
C112        N113   1.432       .  S
N113        H117   1.045       .  S
N113        H118   1.046   1_545  S
N116        H119   1.046       .  S
N116        H120   1.046       .  S
C121        C122   1.408       .  A
C121        C126   1.401       .  A
C121        H128   1.084       .  S
C122        C123   1.418       .  A
C123        C124   1.399       .  A
C123        N130   1.433   1_545  S
C124        C125   1.396       .  A
C124        H129   1.085   1_545  S
C125        C126   1.411       .  A
C126        N703   1.433       .  S
N127        C702   1.433   1_455  S
N127        H131   1.046       .  S
N127        H132   1.044   1_455  S
N130        H133   1.046       .  S
N130        H134   1.046       .  S
C135        C136   1.408       .  A
C135        C140   1.401       .  A
C135        H142   1.083       .  S
C136        C137   1.419       .  A
C137        C138   1.400       .  A
C137        N144   1.433       .  S
C138        C139   1.396       .  A
C138        H143   1.085       .  S
C139        C140   1.410       .  A
C140        N717   1.432       .  S
N141        C716   1.431   1_455  S
N141        H145   1.044       .  S
N141        H146   1.045       .  S
N144        H147   1.046       .  S
N144        H148   1.046       .  S
C149        C150   1.399       .  A
C149        C154   1.399       .  A
C149        H156   1.083   1_545  S
C150        C151   1.408       .  A
C151        C152   1.406       .  A
C151        N158   1.436       .  S
C152        C153   1.404       .  A
C152        H157   1.084       .  S
C153        C154   1.419       .  A
C154        N155   1.433       .  S
N155        H159   1.044       .  S
N155        H160   1.046       .  S
N158        H161   1.046       .  S
N158        H162   1.045       .  S
C163        C164   1.398       .  A
C163        C168   1.400       .  A
C163        H746   1.084       .  S
C164        C165   1.412       .  A
C165        C166   1.410       .  A
C165        N460   1.437   1_545  S
C166        C167   1.406       .  A
C166        H171   1.083       .  S
C167        C168   1.418       .  A
C168        N169   1.439       .  S
N169        H174   1.046       .  S
N169        H749   1.046       .  S
H170        C739   1.079       .  S
N172        C453   1.437       .  S
N172        H175   1.046       .  S
N172        H464   1.046       .  S
H173        N745   1.046       .  S
H176        N460   1.046       .  S
C177        C178   1.408       .  A
C177        C182   1.399       .  A
C177        H184   1.075       .  S
C178       C1043   1.414   1_545  A
C179        C180   1.402       .  A
C179       C1042   1.415   1_655  A
C179        N186   1.434       .  S
C180       C1045   1.408       .  A
C180        H185   1.075       .  S
C181        C945   1.530       .  S
C181        C182   1.413   1_565  A
C181       C1044   1.408       .  A
C182        N183   1.434       .  S
N183        H187   1.046       .  S
N183        H188   1.046       .  S
N186        H189   1.045       .  S
N186        H190   1.046       .  S
C191        C192   1.411       .  A
C191        C196   1.399   1_554  A
C191        H198   1.074       .  S
C192       C1057   1.427   1_455  A
C193        C194   1.397   1_554  A
C193       C1056   1.425       .  A
C193        N200   1.436       .  S
C194       C1059   1.408       .  A
C194        H199   1.074       .  S
C195        C196   1.423   1_655  A
C195       C1058   1.409       .  A
C196        N197   1.436       .  S
N197        H201   1.041       .  S
N197        H202   1.042       .  S
N200        H203   1.041       .  S
N200        H204   1.042       .  S
C205        C206   1.398       .  A
C205        C210   1.400       .  A
C205        H500   1.084       .  S
C206        C207   1.408       .  A
C207        C208   1.408       .  A
C207        N790   1.432       .  S
C208        C209   1.407       .  A
C208        H213   1.084       .  S
C209        C210   1.417       .  A
C210        N211   1.433       .  S
N211        H216   1.046       .  S
N211        H503   1.046       .  S
H212        C493   1.085   1_545  S
N214        C783   1.432       .  S
N214        H217   1.045       .  S
N214        H218   1.045       .  S
H215        N499   1.046   1_545  S
C219        C220   1.406       .  A
C219        C224   1.406       .  A
C219        H226   1.084       .  S
C220        C221   1.417       .  A
C221        C222   1.399       .  A
C221        N228   1.433       .  S
C222        C223   1.398       .  A
C222        H227   1.085       .  S
C223        C224   1.419       .  A
C224        N513   1.439       .  S
N225        C512   1.439   1_545  S
N225        H229   1.046       .  S
N225        H230   1.042       .  S
N228        H231   1.046       .  S
N228        H232   1.046       .  S
C233        C234   1.405       .  A
C233        C238   1.413       .  A
C233        H240   1.084       .  S
C234        C235   1.404       .  A
C235        C236   1.394       .  A
C235        N818   1.431   1_455  S
C236        C237   1.405       .  A
C236        H241   1.084       .  S
C237        C238   1.416       .  A
C238        N239   1.437       .  S
N239        H243   1.046       .  S
N239        H244   1.046       .  S
N242        C811   1.433       .  S
N242        H245   1.045       .  S
N242        H246   1.046       .  S
C247        C248   1.406       .  A
C247        C252   1.410       .  A
C247        H254   1.083       .  S
C248        C249   1.417       .  A
C249        C250   1.398       .  A
C249        N256   1.433       .  S
C250        C251   1.397       .  A
C250        H255   1.084   1_455  S
C251        C252   1.412       .  A
C252        N253   1.437       .  S
N253        H257   1.046       .  S
N253        H258   1.046       .  S
N256        H259   1.046   1_455  S
N256        H260   1.046       .  S
C261        C262   1.406       .  A
C261        C266   1.399       .  A
C261        H268   1.083       .  S
C262        C263   1.417       .  A
C263        C264   1.405       .  A
C263        N270   1.432       .  S
C264        C265   1.406       .  A
C264        H269   1.084       .  S
C265        C266   1.409       .  A
C266        N555   1.437       .  S
N267        C554   1.437   1_545  S
N267        H271   1.046       .  S
N267        H272   1.044       .  S
N270        H273   1.046       .  S
N270        H274   1.045       .  S
C275        C276   1.405       .  A
C275        C280   1.406       .  A
C275        H282   1.084       .  S
C276        C277   1.413       .  A
C277        C278   1.397       .  A
C277        N284   1.433       .  S
C278        C279   1.401       .  A
C278        H283   1.085       .  S
C279        C280   1.421       .  A
C280        N857   1.438       .  S
N281        C856   1.439       .  S
N281        H285   1.046       .  S
N281        H286   1.041       .  S
N284        H287   1.046       .  S
N284        H288   1.046       .  S
O289        C304   1.265       .  A
O289       Al297   1.918       .  S
C290        O300   1.262       .  A
C290        O291   1.261       .  A
C290        C550   1.487       .  S
O291       Al293   1.896       .  S
O292        C294   1.262       .  A
O292       Al293   1.907       .  S
Al293       O301   1.903       .  S
Al293       O303   1.899       .  S
Al293       O302   1.785       .  S
C294        O307   1.259       .  A
C294        C536   1.481       .  S
O295        C305   1.264       .  A
O295       Al297   1.915       .  S
O296        C309   1.262       .  A
O296       Al306   1.910       .  S
Al297       O310   1.900       .  S
Al297       O307   1.891       .  S
Al297       O302   1.784       .  S
O298        C305   1.259       .  A
O298       Al306   1.898       .  S
O299        C308   1.258       .  A
O299       Al306   1.893       .  S
O300       Al306   1.909       .  S
O301        C308   1.262       .  A
O302       Al306   1.788       .  S
O303        C304   1.260       .  A
C304        C497   1.495       .  S
C305        C564   1.492       .  S
C308        C508   1.482       .  S
C309        O310   1.262       .  A
C309        C525   1.488       .  S
C311        C312   1.552   1_545  S
C311        C891   1.543   1_445  S
C311        C480   1.536       .  S
C312        H319   1.080       .  S
C312        C313   1.366       .  D
C313        C314   1.532   1_565  S
C313        C539   1.478       .  S
C314        C892   1.531   1_445  S
C315        C887   1.541   1_565  S
C315        H321   1.086       .  S
C315        C316   1.363       .  D
C316        C890   1.531   1_565  S
C316        C553   1.483       .  S
C317        H322   1.086       .  S
C317        C318   1.364       .  D
C318        C567   1.481       .  S
C323        C900   1.549       .  S
C323        C617   1.542       .  S
C323        C466   1.530       .  S
C324        C899   1.554       .  S
C324        H331   1.081       .  S
C324        C325   1.367       .  D
C325        C902   1.531       .  S
C325        C522   1.483       .  S
C326        C901   1.532       .  S
C326        C618   1.534       .  S
C326        H332   1.111       .  S
C327        H333   1.086       .  S
C327        C328   1.363       .  D
C328        C511   1.478       .  S
C329        C611   1.545   1_465  S
C329        H334   1.086       .  S
C329        C330   1.364       .  D
C330        C614   1.531   1_565  S
C330        C494   1.479       .  S
O335        C350   1.264       .  A
O335       Al343   1.911       .  S
C336        O346   1.263       .  A
C336        O337   1.259       .  A
C336        C441   1.484       .  S
O337       Al339   1.899       .  S
O338        C340   1.261       .  A
O338       Al339   1.904       .  S
Al339       O347   1.904       .  S
Al339       O349   1.895       .  S
Al339       O348   1.783       .  S
C340        O353   1.259       .  A
C340        C455   1.482       .  S
O341        C351   1.263       .  A
O341       Al343   1.904       .  S
O342        C355   1.262       .  A
O342       Al352   1.910       .  S
Al343       O356   1.901       .  S
Al343       O353   1.899       .  S
Al343       O348   1.785       .  S
O344        C351   1.260       .  A
O344       Al352   1.898       .  S
O345        C354   1.259       .  A
O345       Al352   1.890       .  S
O346       Al352   1.912       .  S
O347        C354   1.261       .  A
O348       Al352   1.787       .  S
O349        C350   1.259       .  A
C350        C410   1.489       .  S
C351        C424   1.487       .  S
C354        C396   1.477       .  S
C355        O356   1.262       .  A
C355        C385   1.489       .  S
C357        C934   1.544       .  S
C357        C651   1.553   1_565  S
C357        C483   1.541       .  S
C358        C933   1.544   1_565  S
C358        H365   1.085       .  S
C358        C359   1.363       .  D
C359        C936   1.531       .  S
C359        C382   1.480       .  S
C360        C935   1.530       .  S
C360        C652   1.528   1_565  S
C360        H366   1.111       .  S
C361        H367   1.086       .  S
C361        C362   1.364       .  D
C362        C399   1.481       .  S
C363        C645   1.554       .  S
C363        H368   1.079       .  S
C363        C364   1.360       .  D
C364        C648   1.526       .  S
C364        C413   1.473       .  S
C369        C658   1.544   1_565  S
C369        C951   1.547       .  S
C369        C757   1.535       .  S
C370        C657   1.542       .  S
C370        H377   1.086       .  S
C370        C371   1.365       .  D
C371        C660   1.531       .  S
C371        C452   1.480       .  S
C372        C659   1.541   1_565  S
C372        C952   1.532       .  S
C372        H378   1.108       .  S
C373        H379   1.086       .  S
C373        C374   1.358       .  D
C374        C438   1.477       .  S
C375        C945   1.549       .  S
C375        H380   1.081       .  S
C375        C376   1.362       .  D
C376        C948   1.528       .  S
C376        C427   1.472       .  S
C381        C382   1.404       .  A
C381        C386   1.413       .  A
C381        H388   1.084       .  S
C382        C383   1.403       .  A
C383        C384   1.396       .  A
C383        N966   1.433       .  S
C384        C385   1.407       .  A
C384        H389   1.084       .  S
C385        C386   1.417       .  A
C386        N387   1.437       .  S
N387        H391   1.046       .  S
N387        H392   1.046       .  S
N390        C959   1.438   1_455  S
N390        H393   1.045       .  S
N390        H394   1.046       .  S
C395        C396   1.404       .  A
C395        C400   1.409       .  A
C395        H402   1.084       .  S
C396        C397   1.412       .  A
C397        C398   1.395       .  A
C397        N404   1.434       .  S
C398        C399   1.400       .  A
C398        H403   1.084       .  S
C399        C400   1.414       .  A
C400        N401   1.437       .  S
N401        H405   1.046       .  S
N401        H406   1.045       .  S
N404        H407   1.046       .  S
N404        H408   1.046       .  S
C409        C410   1.408       .  A
C409        C414   1.402       .  A
C409        H416   1.083       .  S
C410        C411   1.420       .  A
C411        C412   1.399       .  A
C411        N418   1.433       .  S
C412        C413   1.394       .  A
C412        H417   1.085       .  S
C413        C414   1.411       .  A
C414        N991   1.433       .  S
N415        C990   1.433   1_455  S
N415        H419   1.045       .  S
N415        H420   1.044       .  S
N418        H421   1.046       .  S
N418        H422   1.046       .  S
C423        C424   1.407       .  A
C423        C428   1.402       .  A
C423        H430   1.084       .  S
C424        C425   1.420       .  A
C425        C426   1.401       .  A
C425        N432   1.439       .  S
C426        C427   1.397       .  A
C426        H431   1.084       .  S
C427        C428   1.413       .  A
C428       N1005   1.439       .  S
N429       C1004   1.431   1_455  S
N429        H433   1.043       .  S
N429        H434   1.045       .  S
N432        H435   1.046       .  S
N432        H436   1.046       .  S
C437        C438   1.397       .  A
C437        C442   1.397       .  A
C437        H444   1.084       .  S
C438        C439   1.409       .  A
C439        C440   1.408       .  A
C439        N446   1.437       .  S
C440        C441   1.406       .  A
C440        H445   1.084       .  S
C441        C442   1.420       .  A
C442        N443   1.433       .  S
N443        H447   1.044       .  S
N443        H448   1.045       .  S
N446        H449   1.046       .  S
N446        H450   1.046       .  S
C451        C452   1.400       .  A
C451        C456   1.400       .  A
C451       H1034   1.084       .  S
C452        C453   1.410       .  A
C453        C454   1.407       .  A
C454        C455   1.405       .  A
C454        H459   1.083       .  S
C455        C456   1.417       .  A
C456        N457   1.439       .  S
N457       H1037   1.046       .  S
N457        H462   1.046       .  S
H458       C1027   1.080   1_455  S
N460        H463   1.046       .  S
H461       N1033   1.046   1_455  S
C465        C466   1.409       .  A
C465        C470   1.404       .  A
C465        H472   1.076       .  S
C466        C755   1.413       .  A
C467        C754   1.415       .  A
C467        C468   1.403       .  A
C467        N474   1.434       .  S
C468        C757   1.409       .  A
C468        H473   1.076       .  S
C469        C657   1.532       .  S
C469        C756   1.407       .  A
C469        C470   1.416       .  A
C470        N471   1.434       .  S
N471        H475   1.046       .  S
N471        H476   1.046       .  S
N474        H477   1.046       .  S
N474        H478   1.046       .  S
C479        C480   1.410   1_565  A
C479        C484   1.399   1_554  A
C479        H486   1.075       .  S
C480        C769   1.427   1_455  A
C481        C768   1.428       .  A
C481        C482   1.400   1_554  A
C481        N488   1.442       .  S
C482        C771   1.409       .  A
C482        H487   1.073       .  S
C483        C770   1.407   1_565  A
C483        C484   1.425   1_655  A
C484        N485   1.436       .  S
N485        H489   1.041       .  S
N485        H490   1.042       .  S
N488        H491   1.036       .  S
N488        H492   1.046       .  S
C493        C494   1.396       .  A
C493        C498   1.400       .  A
C494        C495   1.409       .  A
C495        C496   1.412       .  A
C495       N1078   1.437   1_455  S
C496        C497   1.409       .  A
C496        H501   1.083       .  S
C497        C498   1.420       .  A
C498        N499   1.433       .  S
N499        H504   1.046   1_565  S
N502       C1071   1.432       .  S
N502        H505   1.045       .  S
N502        H506   1.046       .  S
C507        C508   1.405       .  A
C507        C512   1.404       .  A
C507        H514   1.084       .  S
C508        C509   1.414       .  A
C509        C510   1.395       .  A
C509        N516   1.434       .  S
C510        C511   1.399       .  A
C510        H515   1.085       .  S
C511        C512   1.419       .  A
N513        H517   1.045       .  S
N513        H518   1.042       .  S
N516        H519   1.046       .  S
N516        H520   1.046       .  S
C521        C522   1.405       .  A
C521        C526   1.412       .  A
C521        H528   1.083       .  S
C522        C523   1.405       .  A
C523        C524   1.396       .  A
C523       N1106   1.432   1_455  S
C524        C525   1.406       .  A
C524        H529   1.084       .  S
C525        C526   1.416       .  A
C526        N527   1.437       .  S
N527        H531   1.046       .  S
N527        H532   1.046       .  S
N530       C1099   1.432       .  S
N530        H533   1.046       .  S
N530        H534   1.045       .  S
C535        C536   1.405       .  A
C535        C540   1.409       .  A
C535        H542   1.083       .  S
C536        C537   1.415       .  A
C537        C538   1.396       .  A
C537        N544   1.433       .  S
C538        C539   1.397       .  A
C538        H543   1.084   1_455  S
C539        C540   1.412       .  A
C540        N541   1.437   1_565  S
N541        H545   1.046       .  S
N541        H546   1.046       .  S
N544        H547   1.046   1_455  S
N544        H548   1.046       .  S
C549        C550   1.408       .  A
C549        C554   1.400       .  A
C549        H556   1.083       .  S
C550        C551   1.417       .  A
C551        C552   1.403       .  A
C551        N558   1.432       .  S
C552        C553   1.405       .  A
C552        H557   1.084       .  S
C553        C554   1.408       .  A
N555        H559   1.046       .  S
N555        H560   1.044       .  S
N558        H561   1.046       .  S
N558        H562   1.045       .  S
C563        C564   1.406       .  A
C563        C568   1.406       .  A
C563        H570   1.084       .  S
C564        C565   1.417       .  A
C565        C566   1.400       .  A
C565        N572   1.433       .  S
C566        C567   1.398       .  A
C566        H571   1.085       .  S
C567        C568   1.419       .  A
C568       N1145   1.438   1_455  S
N569       C1144   1.438       .  S
N569        H573   1.046       .  S
N569        H574   1.041       .  S
N572        H575   1.046       .  S
N572        H576   1.046       .  S
O577        C592   1.264       .  A
O577       Al585   1.917       .  S
C578        O588   1.260       .  A
C578        O579   1.262       .  A
C578        C838   1.490       .  S
O579       Al581   1.907       .  S
O580        C582   1.265       .  A
O580       Al581   1.918       .  S
Al581       O589   1.914       .  S
Al581       O591   1.897       .  S
Al581       O590   1.786       .  S
C582        O595   1.258       .  A
C582        C824   1.483       .  S
O583        C593   1.263       .  A
O583       Al585   1.911       .  S
O584        C597   1.261       .  A
O584       Al594   1.907       .  S
Al585       O598   1.887       .  S
Al585       O595   1.885       .  S
Al585       O590   1.786       .  S
O586        C593   1.258       .  A
O586       Al594   1.891       .  S
O587        C596   1.258       .  A
O587       Al594   1.892       .  S
O588       Al594   1.902       .  S
O589        C596   1.264       .  A
O590       Al594   1.788       .  S
O591        C592   1.260       .  A
C592        C785   1.488       .  S
C593        C852   1.487       .  S
C596        C796   1.490       .  S
C597        O598   1.259       .  A
C597        C813   1.484       .  S
C599        C600   1.555       .  S
C599        C893   1.546       .  S
C599        C768   1.542       .  S
C600        H607   1.080       .  S
C600        C601   1.367       .  D
C601        C602   1.531       .  S
C601        C827   1.483       .  S
C602        C894   1.531       .  S
C602        H896   1.111       .  S
C603        H609   1.086       .  S
C603        C604   1.363       .  D
C604        C841   1.483       .  S
C605        C887   1.543       .  S
C605        H610   1.085       .  S
C605        C606   1.362       .  D
C606        C890   1.530       .  S
C606        C855   1.478       .  S
H608        C890   1.111       .  S
C611        C903   1.541   1_545  S
C611        C754   1.535   1_545  S
C612        H619   1.081       .  S
C612        C613   1.361       .  D
C613        C810   1.473       .  S
C614        C904   1.532   1_445  S
C614        H620   1.112       .  S
C615        C899   1.540   1_655  S
C615        H621   1.086       .  S
C615        C616   1.361       .  D
C616        C902   1.530   1_655  S
C616        C799   1.477       .  S
C617        H622   1.086       .  S
C617        C618   1.362       .  D
C618        C782   1.481       .  S
O623        C638   1.262       .  A
O623       Al631   1.906       .  S
C624        O634   1.264       .  A
C624        O625   1.255       .  A
C624        C729   1.494       .  S
O625       Al627   1.884       .  S
O626        C628   1.262       .  A
O626       Al627   1.909       .  S
Al627       O635   1.902       .  S
Al627       O637   1.892       .  S
Al627       O636   1.786       .  S
C628        O641   1.261       .  A
C628        C743   1.480       .  S
O629        C639   1.261       .  A
O629       Al631   1.898       .  S
O630        C643   1.264       .  A
O630       Al640   1.921       .  S
Al631       O644   1.895       .  S
Al631       O641   1.900       .  S
Al631       O636   1.786       .  S
O632        C639   1.262       .  A
O632       Al640   1.907       .  S
O633        C642   1.262       .  A
O633       Al640   1.907       .  S
O634       Al640   1.922       .  S
O635        C642   1.262       .  A
O636       Al640   1.790       .  S
O637        C638   1.257       .  A
C638        C698   1.486       .  S
C639        C712   1.480       .  S
C642        C684   1.483       .  S
C643        O644   1.260       .  A
C643        C673   1.490       .  S
C645        C937   1.543       .  S
C645        C771   1.546       .  S
C646        H653   1.085       .  S
C646        C647   1.366       .  D
C647        C670   1.488       .  S
C648        C938   1.533       .  S
C648        H654   1.111       .  S
C649        C933   1.544       .  S
C649        H655   1.086       .  S
C649        C650   1.364       .  D
C650        C936   1.531   1_545  S
C650        C687   1.484       .  S
C651        H656   1.079       .  S
C651        C652   1.360       .  D
C652        C701   1.473       .  S
C657        C949   1.543       .  S
C658        H665   1.085       .  S
C658        C659   1.371       .  D
C659        C740   1.499       .  S
C660        C950   1.531       .  S
C660        H666   1.111       .  S
C661        C945   1.543   1_545  S
C661        H667   1.086       .  S
C661        C662   1.362       .  D
C662        C948   1.531   1_545  S
C662        C726   1.477       .  S
C663        H668   1.081       .  S
C663        C664   1.363       .  D
C664        C715   1.479       .  S
C669        C670   1.405       .  A
C669        C674   1.413       .  A
C669        H676   1.083       .  S
C670        C671   1.410       .  A
C671        C672   1.402       .  A
C672        C673   1.407       .  A
C672        H677   1.084       .  S
C673        C674   1.414       .  A
C674        N675   1.437       .  S
N675        H679   1.046       .  S
N675        H680   1.046       .  S
N678        H681   1.046       .  S
N678        H682   1.045       .  S
C683        C684   1.405       .  A
C683        C688   1.408       .  A
C683        H690   1.084       .  S
C684        C685   1.416       .  A
C685        C686   1.402       .  A
C685        N692   1.439       .  S
C686        C687   1.401       .  A
C686        H691   1.084       .  S
C687        C688   1.412       .  A
C688        N689   1.437       .  S
N689        H693   1.046       .  S
N689        H694   1.045   1_545  S
N692        H695   1.046       .  S
N692        H696   1.046       .  S
C697        C698   1.406       .  A
C697        C702   1.399       .  A
C697        H704   1.084       .  S
C698        C699   1.419       .  A
C699        C700   1.399       .  A
C699        N706   1.433   1_545  S
C700        C701   1.395       .  A
C700        H705   1.085   1_545  S
C701        C702   1.412       .  A
N703        H707   1.046       .  S
N703        H708   1.044       .  S
N706        H709   1.046       .  S
N706        H710   1.046       .  S
C711        C712   1.405       .  A
C711        C716   1.399       .  A
C711        H718   1.084       .  S
C712        C713   1.414       .  A
C713        C714   1.407       .  A
C713        N720   1.438       .  S
C714        C715   1.402       .  A
C714        H719   1.084       .  S
C715        C716   1.409       .  A
N717        H721   1.045       .  S
N717        H722   1.045       .  S
N720        H723   1.046       .  S
N720        H724   1.046       .  S
C725        C726   1.393       .  A
C725        C730   1.392       .  A
C725        H732   1.083   1_545  S
C726        C727   1.409       .  A
C727        C728   1.412       .  A
C727        N734   1.437       .  S
C728        C729   1.409       .  A
C728        H733   1.083       .  S
C729        C730   1.427       .  A
C730        N731   1.433   1_545  S
N731        H735   1.045   1_565  S
N731        H736   1.045   1_565  S
N734        H737   1.045       .  S
N734        H738   1.046       .  S
C739        C740   1.404       .  A
C739        C744   1.400       .  A
C740        C741   1.419       .  A
C741        C742   1.411       .  A
C741       N1036   1.437       .  S
C742        C743   1.402       .  A
C742        H747   1.084       .  S
C743        C744   1.412       .  A
C744        N745   1.440       .  S
N745        H750   1.046       .  S
N748       C1029   1.437       .  S
N748        H751   1.046       .  S
N748       H1040   1.046       .  S
H752       N1036   1.046       .  S
C753        C754   1.408   1_445  A
C753        C758   1.402       .  A
C753        H760   1.076       .  S
C755        C756   1.397       .  A
C755        N762   1.434       .  S
C756        H761   1.074       .  S
C757        C758   1.414   1_665  A
C758        N759   1.434       .  S
N759        H763   1.046       .  S
N759        H764   1.046       .  S
N762        H765   1.046       .  S
N762        H766   1.046       .  S
C767        C768   1.410       .  A
C767        C772   1.400   1_554  A
C767        H774   1.075       .  S
C769        C770   1.396   1_554  A
C769        N776   1.442       .  S
C770        H775   1.073       .  S
C771        C772   1.424       .  A
C772        N773   1.436       .  S
N773        H777   1.041       .  S
N773        H778   1.042       .  S
N776        H779   1.036       .  S
N776        H780   1.046       .  S
C781        C782   1.398       .  A
C781        C786   1.399       .  A
C781       H1076   1.084       .  S
C782        C783   1.409       .  A
C783        C784   1.409       .  A
C784        C785   1.407       .  A
C784        H789   1.084       .  S
C785        C786   1.417       .  A
C786        N787   1.433       .  S
N787       H1079   1.046       .  S
N787        H792   1.046       .  S
H788       C1069   1.084   1_545  S
N790        H793   1.045       .  S
N790        H794   1.046   1_455  S
H791       N1075   1.046   1_545  S
C795        C796   1.406       .  A
C795        C800   1.404       .  A
C795        H802   1.084       .  S
C796        C797   1.421       .  A
C797        C798   1.401       .  A
C797        N804   1.439       .  S
C798        C799   1.397       .  A
C798        H803   1.085       .  S
C799        C800   1.417       .  A
C800       N1089   1.439       .  S
N801       C1088   1.439   1_545  S
N801        H805   1.045       .  S
N801        H806   1.042       .  S
N804        H807   1.046       .  S
N804        H808   1.046       .  S
C809        C810   1.403       .  A
C809        C814   1.410       .  A
C809        H816   1.084       .  S
C810        C811   1.401       .  A
C811        C812   1.394       .  A
C812        C813   1.408       .  A
C812        H817   1.084       .  S
C813        C814   1.416       .  A
C814        N815   1.437       .  S
N815        H819   1.046       .  S
N815        H820   1.046       .  S
N818        H821   1.046       .  S
N818        H822   1.045       .  S
C823        C824   1.405       .  A
C823        C828   1.411       .  A
C823        H830   1.083       .  S
C824        C825   1.415       .  A
C825        C826   1.396       .  A
C825        N832   1.434       .  S
C826        C827   1.399       .  A
C826        H831   1.084       .  S
C827        C828   1.413       .  A
C828        N829   1.437       .  S
N829        H833   1.046       .  S
N829        H834   1.046       .  S
N832        H835   1.046       .  S
N832        H836   1.046       .  S
C837        C838   1.407       .  A
C837        C842   1.399       .  A
C837        H844   1.084       .  S
C838        C839   1.421       .  A
C839        C840   1.404       .  A
C839        N846   1.432       .  S
C840        C841   1.403       .  A
C840        H845   1.084       .  S
C841        C842   1.405       .  A
C842       N1131   1.431       .  S
N843       C1130   1.438   1_545  S
N843        H847   1.045       .  S
N843        H848   1.045       .  S
N846        H849   1.046       .  S
N846        H850   1.045       .  S
C851        C852   1.406       .  A
C851        C856   1.405       .  A
C851        H858   1.084       .  S
C852        C853   1.416       .  A
C853        C854   1.398       .  A
C853        N860   1.433       .  S
C854        C855   1.398       .  A
C854        H859   1.085       .  S
C855        C856   1.418       .  A
N857        H861   1.046   1_455  S
N857        H862   1.039   1_455  S
N860        H863   1.046       .  S
N860        H864   1.046       .  S
O865        C880   1.263       .  A
O865       Al873   1.912       .  S
C866        O876   1.262       .  A
C866        O867   1.262       .  A
C866       C1126   1.489       .  S
O867       Al869   1.901       .  S
O868        C870   1.263       .  A
O868       Al869   1.911       .  S
Al869       O877   1.912       .  S
Al869       O879   1.896       .  S
Al869       O878   1.785       .  S
C870        O883   1.258       .  A
C870       C1112   1.480       .  S
O871        C881   1.264       .  A
O871       Al873   1.912       .  S
O872        C885   1.262       .  A
O872       Al882   1.907       .  S
Al873       O886   1.890       .  S
Al873       O883   1.887       .  S
Al873       O878   1.786       .  S
O874        C881   1.259       .  A
O874       Al882   1.896       .  S
O875        C884   1.257       .  A
O875       Al882   1.892       .  S
O876       Al882   1.907       .  S
O877        C884   1.263       .  A
O878       Al882   1.787       .  S
O879        C880   1.260       .  A
C880       C1073   1.484       .  S
C881       C1140   1.489       .  S
C884       C1084   1.490       .  S
C885        O886   1.260       .  A
C885       C1101   1.481       .  S
C887        C888   1.553   1_545  S
C887       C1056   1.540       .  S
C888        H895   1.079       .  S
C888        C889   1.366       .  D
C889        C890   1.532   1_565  S
C889       C1115   1.482       .  S
C891        H897   1.086       .  S
C891        C892   1.360       .  D
C892       C1129   1.482       .  S
C893        H898   1.086       .  S
C893        C894   1.364       .  D
C894       C1143   1.483       .  S
C899       C1042   1.535       .  S
C900        H907   1.081       .  S
C900        C901   1.365       .  D
C901       C1098   1.477       .  S
C902        H908   1.111       .  S
C903        H909   1.086       .  S
C903        C904   1.362       .  D
C904       C1087   1.477       .  S
C905        H910   1.086       .  S
C905        C906   1.365       .  D
C906       C1070   1.481       .  S
O911        C926   1.260       .  A
O911       Al919   1.898       .  S
C912        O922   1.263       .  A
C912        O913   1.256       .  A
C912       C1017   1.487       .  S
O913       Al915   1.884       .  S
O914        C916   1.263       .  A
O914       Al915   1.912       .  S
Al915       O923   1.904       .  S
Al915       O925   1.891       .  S
Al915       O924   1.785       .  S
C916        O929   1.261       .  A
C916       C1031   1.485       .  S
O917        C927   1.259       .  A
O917       Al919   1.889       .  S
O918        C931   1.261       .  A
O918       Al928   1.910       .  S
Al919       O932   1.898       .  S
Al919       O929   1.902       .  S
Al919       O924   1.786       .  S
O920        C927   1.261       .  A
O920       Al928   1.904       .  S
O921        C930   1.261       .  A
O921       Al928   1.901       .  S
O922       Al928   1.913       .  S
O923        C930   1.262       .  A
O924       Al928   1.790       .  S
O925        C926   1.258       .  A
C926        C986   1.482       .  S
C927       C1000   1.470       .  S
C930        C972   1.481       .  S
C931        O932   1.260       .  A
C931        C961   1.492       .  S
C933       C1059   1.541       .  S
C934        H941   1.086       .  S
C934        C935   1.363       .  D
C935        C958   1.477       .  S
C936        H942   1.111       .  S
C937        H943   1.085       .  S
C937        C938   1.365       .  D
C938        C975   1.484       .  S
C939        H944   1.079       .  S
C939        C940   1.359       .  D
C940        C989   1.468       .  S
C946        H953   1.085       .  S
C946        C947   1.371       .  D
C947       C1028   1.493       .  S
C948        H954   1.112       .  S
C949        H955   1.086       .  S
C949        C950   1.364       .  D
C950       C1014   1.477       .  S
C951        H956   1.081       .  S
C951        C952   1.362       .  D
C952       C1003   1.477       .  S
C957        C958   1.402       .  A
C957        C962   1.411       .  A
C957        H964   1.084       .  S
C958        C959   1.404       .  A
C959        C960   1.401       .  A
C960        C961   1.409       .  A
C960        H965   1.083       .  S
C961        C962   1.418       .  A
C962        N963   1.437       .  S
N963        H967   1.046       .  S
N963        H968   1.046       .  S
N966        H969   1.046       .  S
N966        H970   1.045       .  S
C971        C972   1.404       .  A
C971        C976   1.409       .  A
C971        H978   1.084       .  S
C972        C973   1.412       .  A
C973        C974   1.398       .  A
C973        N980   1.433       .  S
C974        C975   1.401       .  A
C974        H979   1.084       .  S
C975        C976   1.414       .  A
C976        N977   1.437       .  S
N977        H981   1.046       .  S
N977        H982   1.045       .  S
N980        H983   1.046       .  S
N980        H984   1.046       .  S
C985        C986   1.407       .  A
C985        C990   1.399       .  A
C985        H992   1.084       .  S
C986        C987   1.418       .  A
C987        C988   1.396       .  A
C987        N994   1.433       .  S
C988        C989   1.394       .  A
C988        H993   1.085       .  S
C989        C990   1.410       .  A
N991        H995   1.045       .  S
N991        H996   1.045       .  S
N994        H997   1.046       .  S
N994        H998   1.046       .  S
C999       C1000   1.401       .  A
C999       C1004   1.396       .  A
C999       H1006   1.084       .  S
C1000      C1001   1.411       .  A
C1001      C1002   1.405       .  A
C1001      N1008   1.438       .  S
C1002      C1003   1.403       .  A
C1002      H1007   1.084       .  S
C1003      C1004   1.411       .  A
N1005      H1009   1.045       .  S
N1005      H1010   1.043       .  S
N1008      H1011   1.046       .  S
N1008      H1012   1.046       .  S
C1013      C1014   1.395       .  A
C1013      C1018   1.391       .  A
C1013      H1020   1.084       .  S
C1014      C1015   1.410       .  A
C1015      C1016   1.410       .  A
C1015      N1022   1.437       .  S
C1016      C1017   1.408       .  A
C1016      H1021   1.083       .  S
C1017      C1018   1.424       .  A
C1018      N1019   1.434       .  S
N1019      H1023   1.046       .  S
N1019      H1024   1.045       .  S
N1022      H1025   1.045       .  S
N1022      H1026   1.046       .  S
C1027      C1028   1.401       .  A
C1027      C1032   1.400       .  A
C1028      C1029   1.416       .  A
C1029      C1030   1.412       .  A
C1030      C1031   1.405       .  A
C1030      H1035   1.083       .  S
C1031      C1032   1.415       .  A
C1032      N1033   1.440       .  S
N1033      H1038   1.046       .  S
N1036      H1039   1.046   1_545  S
C1041      C1042   1.408       .  A
C1041      C1046   1.404       .  A
C1041      H1048   1.076       .  S
C1043      C1044   1.401       .  A
C1043      N1050   1.434       .  S
C1044      H1049   1.076       .  S
C1045      C1046   1.415   1_655  A
C1046      N1047   1.434       .  S
N1047      H1051   1.046       .  S
N1047      H1052   1.046       .  S
N1050      H1053   1.046       .  S
N1050      H1054   1.046       .  S
C1055      C1056   1.409   1_565  A
C1055      C1060   1.398   1_554  A
C1055      H1062   1.074       .  S
C1057      C1058   1.399   1_554  A
C1057      N1064   1.442       .  S
C1058      H1063   1.073       .  S
C1059      C1060   1.426   1_545  A
C1060      N1061   1.436       .  S
N1061      H1065   1.041       .  S
N1061      H1066   1.041       .  S
N1064      H1067   1.036       .  S
N1064      H1068   1.046       .  S
C1069      C1070   1.399       .  A
C1069      C1074   1.398       .  A
C1070      C1071   1.409       .  A
C1071      C1072   1.407       .  A
C1072      C1073   1.406       .  A
C1072      H1077   1.084       .  S
C1073      C1074   1.416       .  A
C1074      N1075   1.433       .  S
N1075      H1080   1.046   1_565  S
N1078      H1081   1.045       .  S
N1078      H1082   1.045       .  S
C1083      C1084   1.407       .  A
C1083      C1088   1.404       .  A
C1083      H1090   1.084       .  S
C1084      C1085   1.421       .  A
C1085      C1086   1.400       .  A
C1085      N1092   1.439       .  S
C1086      C1087   1.397       .  A
C1086      H1091   1.084       .  S
C1087      C1088   1.417       .  A
N1089      H1093   1.045       .  S
N1089      H1094   1.042       .  S
N1092      H1095   1.046       .  S
N1092      H1096   1.046       .  S
C1097      C1098   1.404       .  A
C1097      C1102   1.409       .  A
C1097      H1104   1.084       .  S
C1098      C1099   1.404       .  A
C1099      C1100   1.394       .  A
C1100      C1101   1.406       .  A
C1100      H1105   1.084       .  S
C1101      C1102   1.414       .  A
C1102      N1103   1.437       .  S
N1103      H1107   1.046       .  S
N1103      H1108   1.046       .  S
N1106      H1109   1.046       .  S
N1106      H1110   1.045       .  S
C1111      C1112   1.403       .  A
C1111      C1116   1.408       .  A
C1111      H1118   1.083       .  S
C1112      C1113   1.417       .  A
C1113      C1114   1.400       .  A
C1113      N1120   1.440       .  S
C1114      C1115   1.399       .  A
C1114      H1119   1.084       .  S
C1115      C1116   1.412       .  A
C1116      N1117   1.437   1_565  S
N1117      H1121   1.046       .  S
N1117      H1122   1.046       .  S
N1120      H1123   1.046       .  S
N1120      H1124   1.046       .  S
C1125      C1126   1.408       .  A
C1125      C1130   1.400       .  A
C1125      H1132   1.083       .  S
C1126      C1127   1.419       .  A
C1127      C1128   1.404       .  A
C1127      N1134   1.432       .  S
C1128      C1129   1.404       .  A
C1128      H1133   1.084       .  S
C1129      C1130   1.407       .  A
N1131      H1135   1.045       .  S
N1131      H1136   1.045       .  S
N1134      H1137   1.046       .  S
N1134      H1138   1.045       .  S
C1139      C1140   1.406       .  A
C1139      C1144   1.406       .  A
C1139      H1146   1.084       .  S
C1140      C1141   1.416       .  A
C1141      C1142   1.398       .  A
C1141      N1148   1.433       .  S
C1142      C1143   1.399       .  A
C1142      H1147   1.085       .  S
C1143      C1144   1.420       .  A
N1145      H1149   1.045       .  S
N1145      H1150   1.041       .  S
N1148      H1151   1.046       .  S
N1148      H1152   1.046       .  S
