geometry optimzed in LAMMPS
_audit_creation_date              2020-11-30 
_audit_creation_method            'lammps2cif' 
_symmetry_space_group_name_H-M    'P1' 
_symmetry_Int_Tables_number       1 
_symmetry_cell_setting            triclinic 
loop_ 
_symmetry_equiv_pos_as_xyz 
  x,y,z 
_cell_length_a                    30.092266576491486 
_cell_length_b                    30.12637642510255 
_cell_length_c                    30.099966421517884 
_cell_angle_alpha                 90.00135109889727 
_cell_angle_beta                  90.00042133797288 
_cell_angle_gamma                 90.00036178819629 
loop_ 
_atom_site_label 
_atom_site_type_symbol 
_atom_site_fract_x 
_atom_site_fract_y 
_atom_site_fract_z 
_atom_site_charge 
C1          C  0.37277457  0.37276123  0.01049525     0.03230
C2          C  0.38469942  0.32682722  0.00980963    -0.12920
C3          C  0.35298733  0.29586664  0.50424802     0.00730
C4          C  0.31368617  0.31362368  0.52128377    -0.11440
C5          C  0.29588412  0.35280973  0.50413156     0.03230
C6          C  0.32677018  0.38451006  0.00969536    -0.10860
H7          H  0.41789326  0.31592018  0.01839079     0.08820
H8          H  0.29406205  0.29402727  0.54265937     0.06350
H9          H  0.31568840  0.41765033  0.01812240     0.06200
C10         C  0.37278033  0.16952982  0.98956530     0.03230
C11         C  0.32677713  0.15778536  0.99025825    -0.12920
C12         C  0.29589002  0.18946976  0.49590037     0.00730
C13         C  0.31370285  0.22869609  0.47886138    -0.11440
C14         C  0.35294737  0.24643806  0.00454115     0.03230
C15         C  0.38470416  0.21545421  0.99043922    -0.10860
H16         H  0.31570562  0.12468150  0.98167427     0.08820
H17         H  0.29406370  0.24837188  0.45758708     0.06350
H18         H  0.41789953  0.22639481  0.98190633     0.06200
C19         C  0.16950665  0.16953249  0.01046834     0.03230
C20         C  0.21552187  0.15773636  0.48976539    -0.12920
C21         C  0.24640370  0.18946804  0.50417236     0.00730
C22         C  0.22857853  0.22870335  0.52118843    -0.11440
C23         C  0.18931327  0.24641875  0.50405062     0.03230
C24         C  0.15764269  0.21547074  0.48957312    -0.10860
H25         H  0.22656974  0.12468588  0.01847891     0.08820
H26         H  0.24819122  0.24837676  0.54249539     0.06350
H27         H  0.12449708  0.22647555  0.48094268     0.06200
C28         C  0.16951436  0.37272962  0.51134131     0.03230
C29         C  0.21551600  0.38450777  0.51024890    -0.12920
C30         C  0.24640975  0.35281072  0.49578994     0.00730
C31         C  0.22859628  0.31361460  0.47866242    -0.11440
C32         C  0.18930814  0.29586351  0.49573608     0.03230
C33         C  0.15763718  0.32678067  0.51027295    -0.10860
H34         H  0.22659091  0.41759776  0.51889020     0.08820
H35         H  0.24819374  0.29402094  0.45725464     0.06350
H36         H  0.12448920  0.31575773  0.51887140     0.06200
C37         C  0.37277417  0.00992144  0.35150252     0.03230
C38         C  0.38463011  0.01103829  0.30551684    -0.12920
C39         C  0.35290865  0.02547822  0.27459206     0.00730
C40         C  0.31357662  0.04241845  0.29231987    -0.11440
C41         C  0.29586241  0.02536365  0.33161049     0.03230
C42         C  0.32678737  0.01098383  0.36332551    -0.10860
H43         H  0.41779448  0.00253252  0.29446660     0.08820
H44         H  0.29372825  0.06337972  0.27250639     0.06350
H45         H  0.31573957  0.00233882  0.39645064     0.06200
C46         C  0.16953005  0.03239008  0.35152076     0.03230
C47         C  0.15767093  0.03131642  0.30553509    -0.12920
C48         C  0.18938025  0.01687829  0.27459705     0.00730
C49         C  0.22870205  0.99989983  0.29231054    -0.11440
C50         C  0.24643073  0.01692136  0.33161278     0.03230
C51         C  0.21551668  0.03129945  0.36333923    -0.10860
H52         H  0.12451004  0.03984772  0.29449392     0.08820
H53         H  0.24851884  0.97890552  0.27249722     0.06350
H54         H  0.22657178  0.03991859  0.39646926     0.06200
C55         C  0.16962371  0.00832810  0.14838042     0.03230
C56         C  0.15777533  0.00979839  0.19434066    -0.12920
C57         C  0.18927240  0.02501791  0.22510994     0.00730
C58         C  0.22840585  0.04234475  0.20721445    -0.11440
C59         C  0.24635496  0.02513611  0.16807446     0.03230
C60         C  0.21560288  0.00992386  0.13654437    -0.10860
H61         H  0.12473060  0.00094267  0.20547711     0.08820
H62         H  0.24784578  0.06403953  0.22670387     0.06350
H63         H  0.22675999  0.00119288  0.10348132     0.06200
C64         C  0.37266367  0.03403490  0.14836808     0.03230
C65         C  0.38451661  0.03255409  0.19432850    -0.12920
C66         C  0.35300606  0.01736844  0.22509917     0.00730
C67         C  0.31385494  0.00008550  0.20720433    -0.11440
C68         C  0.29591621  0.01731489  0.16807444     0.03230
C69         C  0.32667980  0.03248856  0.13653659    -0.10860
H70         H  0.41757290  0.04137068  0.20546251     0.08820
H71         H  0.29439361  0.97841822  0.22669438     0.06350
H72         H  0.31552834  0.04122245  0.10347266     0.06200
C73         C  0.00914824  0.16962123  0.35163500     0.03230
C74         C  0.01032731  0.21555967  0.36350876    -0.12920
C75         C  0.02508400  0.24641862  0.33190635     0.00730
C76         C  0.04233750  0.22859314  0.29275084    -0.11440
C77         C  0.02511515  0.18945795  0.27486278     0.03230
C78         C  0.01036403  0.15783093  0.30566553    -0.10860
H79         H  0.00163413  0.22660675  0.39661699     0.08820
H80         H  0.06411829  0.24800016  0.27336994     0.06350
H81         H  0.00167080  0.12477188  0.29454498     0.06200
C82         C  0.03301827  0.37263239  0.35163239     0.03230
C83         C  0.03174824  0.32670036  0.36350511    -0.12920
C84         C  0.01691135  0.29586988  0.33191360     0.00730
C85         C  0.99968704  0.31372490  0.29274880    -0.11440
C86         C  0.01698592  0.35283234  0.27486340     0.03230
C87         C  0.03181260  0.38442426  0.30566654    -0.10860
H88         H  0.04044168  0.31563644  0.39660732     0.08820
H89         H  0.97784063  0.29436806  0.27337630     0.06350
H90         H  0.04057650  0.41746448  0.29454679     0.06200
C91         C  0.03137857  0.16950959  0.14845520     0.03230
C92         C  0.03065243  0.15774148  0.19445888    -0.12920
C93         C  0.01672401  0.18957312  0.22543215     0.00730
C94         C  0.99980504  0.22887699  0.20774523    -0.11440
C95         C  0.01674521  0.24647610  0.16836571     0.03230
C96         C  0.03061089  0.21544425  0.13655199    -0.10860
H97         H  0.03907533  0.12458712  0.20549804     0.08820
H98         H  0.97892240  0.24873331  0.22757083     0.06350
H99         H  0.03910814  0.22636771  0.10334988     0.06200
C100        C  0.01081653  0.37277245  0.14845034     0.03230
C101        C  0.01148325  0.38453635  0.19445630    -0.12920
C102        C  0.02541471  0.35271517  0.22543981     0.00730
C103        C  0.04239694  0.31343478  0.20776101    -0.11440
C104        C  0.02549891  0.29581902  0.16836563     0.03230
C105        C  0.01162454  0.32683933  0.13654591    -0.10860
H106        H  0.00302285  0.41768352  0.20549004     0.08820
H107        H  0.06335056  0.29363136  0.22757024     0.06350
H108        H  0.00315876  0.31590952  0.10333718     0.06200
O109        O  0.39454550  0.44843643  0.00781622    -0.80030
O110        O  0.14774322  0.44843422  0.99216692    -0.81580
O111        O  0.02888722  0.39460349  0.42726031    -0.78600
O112        O  0.01710629  0.39477080  0.07298932    -0.76980
O113        O  0.01336363  0.44845154  0.12663439    -0.78770
O114        O  0.02886461  0.44828696  0.37347882    -0.79710
O115        O  0.09408538  0.39475238  0.99588404    -0.81030
O116        O  0.44820318  0.39475413  0.00411085    -0.81320
Eu117      Eu  0.02114420  0.43127104  0.99999605     2.39200
O118        O  0.06658623  0.47569149  0.04543290    -0.88830
O119        O  0.47652814  0.47641770  0.45522924    -0.92440
C120        C  0.40740771  0.40752046  0.00810382     1.02250
C121        C  0.13488061  0.40751776  0.99188212     1.02070
C122        C  0.03101591  0.40740271  0.38634119     1.02020
C123        C  0.01312921  0.40753113  0.11378821     0.99880
H124        H  0.08658401  0.45791378  0.43672443     0.29620
O125        O  0.06698353  0.47585525  0.45467032    -1.01220
H126        H  0.45723326  0.45917559  0.06390924     0.29660
O127        O  0.47616630  0.47676515  0.04496765    -1.03760
O128        O  0.14774263  0.09385219  0.00783519    -0.80990
O129        O  0.39454653  0.09385077  0.99216752    -0.80520
O130        O  0.09381475  0.03008172  0.37362327    -0.78960
O131        O  0.09390918  0.01243137  0.12643409    -0.82300
O132        O  0.44837346  0.02987733  0.12642263    -0.80160
O133        O  0.44849130  0.01220267  0.37360857    -0.78800
O134        O  0.01336575  0.14765367  0.42726148    -0.80330
O135        O  0.02514408  0.14751115  0.07298904    -0.82250
O136        O  0.01339837  0.09396938  0.37347868    -0.78990
O137        O  0.02887498  0.09383185  0.12663404    -0.81670
O138        O  0.14770760  0.02606032  0.42704903    -0.77400
O139        O  0.39459750  0.01621524  0.42703333    -0.77430
O140        O  0.39463506  0.02989422  0.07268693    -0.77080
O141        O  0.14764904  0.01242010  0.07270040    -0.80570
O142        O  0.09408169  0.14752826  0.00409435    -0.80000
O143        O  0.44820762  0.14752805  0.99589881    -0.78330
Eu144      Eu  0.11140179  0.02114283  0.99999930     2.39770
Eu145      Eu  0.43088728  0.02114214  0.99998892     2.39570
Eu146      Eu  0.02115135  0.02113013  0.40980975     2.38400
Eu147      Eu  0.02114116  0.02113996  0.09024812     2.39880
Eu148      Eu  0.02114406  0.11100972  0.99999310     2.39790
O149        O  0.47570551  0.06658681  0.04542487    -0.92740
O150        O  0.06577650  0.06583881  0.45523355    -0.91630
C151        C  0.13487722  0.13476764  0.00810094     1.02430
C152        C  0.40741132  0.13476637  0.99190383     1.01150
C153        C  0.13480663  0.03032234  0.38633152     1.00540
C154        C  0.13481424  0.01012784  0.11359379     1.02550
C155        C  0.40747010  0.03219639  0.11358039     1.01470
C156        C  0.40749885  0.01196688  0.38631448     1.00320
C157        C  0.01122104  0.13485266  0.38634253     1.00370
C158        C  0.02910028  0.13475179  0.11378956     1.02990
H159        H  0.45571210  0.08433759  0.43672944     0.30360
O160        O  0.47531684  0.06639849  0.45467220    -1.04900
H161        H  0.08504287  0.08311540  0.06391796     0.32410
O162        O  0.06611613  0.06552057  0.04497388    -1.07460
C163        C  0.37279087  0.37272640  0.48863062     0.03230
C164        C  0.38466921  0.32677799  0.48972454    -0.12920
C165        C  0.35293773  0.29578760  0.99583120     0.00730
C166        C  0.31365715  0.31341930  0.97869634    -0.11440
C167        C  0.29586409  0.35268187  0.99564737     0.03230
C168        C  0.32678759  0.38450452  0.48968824    -0.10860
H169        H  0.41782385  0.31575223  0.48115545     0.08820
H170        H  0.29411049  0.29376140  0.95736549     0.06350
H171        H  0.31571867  0.41759245  0.48103353     0.06200
C172        C  0.37278654  0.16951915  0.51140341     0.03230
C173        C  0.32678266  0.15773890  0.51028525    -0.12920
C174        C  0.29585284  0.18955048  0.00441195     0.00730
C175        C  0.31362886  0.22873919  0.02156835    -0.11440
C176        C  0.35298184  0.24641699  0.49595976     0.03230
C177        C  0.38466517  0.21547401  0.51041738    -0.10860
H178        H  0.31570749  0.12463001  0.51885115     0.08820
H179        H  0.29412531  0.24823853  0.04311223     0.06350
H180        H  0.41781841  0.22648164  0.51901588     0.06200
C181        C  0.16952016  0.16951613  0.48860901     0.03230
C182        C  0.21551464  0.15778802  0.00986950    -0.12920
C183        C  0.24646648  0.18955436  0.99577461     0.00730
C184        C  0.22872316  0.22872184  0.97856228    -0.11440
C185        C  0.18936947  0.24643112  0.99548948     0.03230
C186        C  0.15758164  0.21545745  0.00954128    -0.10860
H187        H  0.22660348  0.12462656  0.48121022     0.08820
H188        H  0.24830356  0.24823915  0.95711953     0.06350
H189        H  0.12436863  0.22640400  0.01799695     0.06200
C190        C  0.16951271  0.37275687  0.98947071     0.03230
C191        C  0.21552226  0.38450663  0.99017788    -0.12920
C192        C  0.24645609  0.35267744  0.00416588     0.00730
C193        C  0.22869628  0.31343470  0.02117136    -0.11440
C194        C  0.18937928  0.29579251  0.00413833     0.03230
C195        C  0.15758628  0.32682170  0.99021134    -0.10860
H196        H  0.22658812  0.41764534  0.98172516     0.08820
H197        H  0.24832061  0.29375840  0.04239880     0.06350
H198        H  0.12437471  0.31590774  0.98170745     0.06200
C199        C  0.37267219  0.00832826  0.85160387     0.03230
C200        C  0.38452276  0.00987148  0.80564743    -0.12920
C201        C  0.35301339  0.02509939  0.77489755     0.00730
C202        C  0.31385385  0.04235485  0.79281388    -0.11440
C203        C  0.29592182  0.02506998  0.83192506     0.03230
C204        C  0.32669014  0.00985538  0.86343831    -0.10860
H205        H  0.41757669  0.00106312  0.79450057     0.08820
H206        H  0.29438872  0.06405282  0.77335349     0.06350
H207        H  0.31554181  0.00107211  0.89649012     0.06200
C208        C  0.16962784  0.03399638  0.85161982     0.03230
C209        C  0.15777615  0.03249454  0.80566221    -0.12920
C210        C  0.18927304  0.01726317  0.77490017     0.00730
C211        C  0.22841882  0.99996563  0.79280475    -0.11440
C212        C  0.24636562  0.01721780  0.83192778     0.03230
C213        C  0.21560898  0.03243684  0.86345069    -0.10860
H214        H  0.12472715  0.04133102  0.79452290     0.08820
H215        H  0.24784449  0.97822116  0.77335187     0.06350
H216        H  0.22676457  0.04119593  0.89650706     0.06200
C217        C  0.16952682  0.00991789  0.64848105     0.03230
C218        C  0.15767042  0.01096357  0.69446885    -0.12920
C219        C  0.18937598  0.02540165  0.72541271     0.00730
C220        C  0.22868228  0.04241640  0.70770647    -0.11440
C221        C  0.24641782  0.02543469  0.66838979     0.03230
C222        C  0.21551157  0.01105151  0.63665862    -0.10860
H223        H  0.12451533  0.00240720  0.70550772     0.08820
H224        H  0.24850516  0.06337390  0.72755060     0.06350
H225        H  0.22657076  0.00245638  0.60352395     0.06200
C226        C  0.37276721  0.03242077  0.64846903     0.03230
C227        C  0.38462692  0.03137007  0.69445792    -0.12920
C228        C  0.35290150  0.01698599  0.72540537     0.00730
C229        C  0.31357315  0.00002569  0.70770287    -0.11440
C230        C  0.29585493  0.01702251  0.66839254     0.03230
C231        C  0.32677769  0.03134685  0.63664977    -0.10860
H232        H  0.41779566  0.03987832  0.70549381     0.08820
H233        H  0.29371963  0.97911385  0.72755443     0.06350
H234        H  0.31572763  0.03993851  0.60351144     0.06200
C235        C  0.01081551  0.16950161  0.85153625     0.03230
C236        C  0.01153544  0.21543775  0.86343949    -0.12920
C237        C  0.02538411  0.24648077  0.83162975     0.00730
C238        C  0.04235554  0.22889242  0.79225970    -0.11440
C239        C  0.02547125  0.18957509  0.77456436     0.03230
C240        C  0.01155691  0.15773379  0.80553251    -0.10860
H241        H  0.00302334  0.22635407  0.89664068     0.08820
H242        H  0.06327528  0.24874184  0.77246630     0.06350
H243        H  0.00316361  0.12457225  0.79449049     0.06200
C244        C  0.03134434  0.37276779  0.85153301     0.03230
C245        C  0.03053340  0.32683696  0.86343672    -0.12920
C246        C  0.01660516  0.29581878  0.83163730     0.00730
C247        C  0.99966072  0.31343515  0.79225906    -0.11440
C248        C  0.01663130  0.35271879  0.77456311     0.03230
C249        C  0.03061918  0.38453121  0.80553054    -0.10860
H250        H  0.03904518  0.31590571  0.89663272     0.08820
H251        H  0.97867161  0.29363428  0.77247448     0.06350
H252        H  0.03908657  0.41767293  0.79448694     0.06200
C253        C  0.03305542  0.16962778  0.64835732     0.03230
C254        C  0.03185018  0.15783748  0.69432688    -0.12920
C255        C  0.01708411  0.18945565  0.72513304     0.00730
C256        C  0.99983164  0.22857797  0.70725135    -0.11440
C257        C  0.01705646  0.24641253  0.66808718     0.03230
C258        C  0.03183096  0.21556418  0.63648232    -0.10860
H259        H  0.04056983  0.12478547  0.70544576     0.08820
H260        H  0.97809075  0.24799559  0.72666444     0.06350
H261        H  0.04051145  0.22661749  0.60337337     0.06200
C262        C  0.00915034  0.37263538  0.64834781     0.03230
C263        C  0.01029232  0.38442659  0.69431838    -0.12920
C264        C  0.02506183  0.35282557  0.72513964     0.00730
C265        C  0.04237685  0.31372310  0.70727191    -0.11440
C266        C  0.02520312  0.29586846  0.66808765     0.03230
C267        C  0.01042004  0.32670116  0.63647431    -0.10860
H268        H  0.00153273  0.41747190  0.70542750     0.08820
H269        H  0.06419590  0.29436827  0.72666680     0.06350
H270        H  0.00177533  0.31563905  0.60335823     0.06200
O271        O  0.39458906  0.44821486  0.49500760    -0.80030
O272        O  0.14771278  0.44821772  0.50497251    -0.81580
O273        O  0.02513626  0.39477070  0.92699932    -0.78600
O274        O  0.01336904  0.39460442  0.57272381    -0.76980
O275        O  0.01338436  0.44828800  0.62650750    -0.78770
O276        O  0.02887887  0.44844797  0.87335308    -0.79710
O277        O  0.09380245  0.39486116  0.50898816    -0.81030
O278        O  0.44850096  0.39485991  0.49099675    -0.81320
Eu279      Eu  0.02115033  0.43105672  0.49999432     2.39200
O280        O  0.06577537  0.47641485  0.54476253    -0.88830
O281        O  0.47570697  0.47569254  0.95455870    -0.92440
C282        C  0.40750250  0.40753435  0.49073436     1.02250
C283        C  0.13480106  0.40753672  0.50924585     1.02070
C284        C  0.02909313  0.40752805  0.88619825     1.02020
C285        C  0.01121620  0.40740463  0.61364216     0.99880
H286        H  0.08504852  0.45916744  0.93607525     0.29620
O287        O  0.06612133  0.47676118  0.95501963    -1.01220
H288        H  0.45570734  0.45791865  0.56325542     0.29660
O289        O  0.47531366  0.47585719  0.54531366    -1.03760
O290        O  0.14771554  0.09403200  0.49501988    -0.80990
O291        O  0.39458750  0.09403467  0.50497807    -0.80520
O292        O  0.09391692  0.02986751  0.87356588    -0.78960
O293        O  0.09380861  0.01219567  0.62637712    -0.82300
O294        O  0.44848269  0.03008462  0.62636599    -0.80160
O295        O  0.44838397  0.01243365  0.87355415    -0.78800
O296        O  0.01710268  0.14750977  0.92699931    -0.80330
O297        O  0.02889524  0.14765502  0.57272901    -0.82250
O298        O  0.01337988  0.09382631  0.87335560    -0.78990
O299        O  0.02886368  0.09397229  0.62651124    -0.81670
O300        O  0.14765543  0.02988766  0.92730163    -0.77400
O301        O  0.39464229  0.01241496  0.92728576    -0.77430
O302        O  0.39458929  0.02606234  0.57294071    -0.77080
O303        O  0.14770133  0.01621829  0.57295210    -0.80570
O304        O  0.09380691  0.14738845  0.49098798    -0.80000
O305        O  0.44849799  0.14739051  0.50900524    -0.78330
Eu306      Eu  0.11133687  0.02112659  0.49999856     2.39770
Eu307      Eu  0.43096005  0.02112582  0.49998949     2.39570
Eu308      Eu  0.02114866  0.02113990  0.90974201     2.38400
Eu309      Eu  0.02114592  0.02112776  0.59017945     2.39880
Eu310      Eu  0.02115023  0.11120135  0.49999350     2.39790
O311        O  0.47652764  0.06583430  0.54475079    -0.92740
O312        O  0.06658852  0.06659041  0.95456075    -0.91630
C313        C  0.13480518  0.13471155  0.49073221     1.02430
C314        C  0.40749977  0.13471407  0.50926697     1.01150
C315        C  0.13482076  0.03218243  0.88640777     1.00540
C316        C  0.13480108  0.01196441  0.61367035     1.02550
C317        C  0.40749071  0.03032931  0.61365806     1.01470
C318        C  0.40747900  0.01012636  0.88639259     1.00320
C319        C  0.01313502  0.13474665  0.88620032     1.00370
C320        C  0.03102492  0.13485631  0.61364864     1.02990
H321        H  0.45723893  0.08310955  0.93607472     0.30360
O322        O  0.47617070  0.06551792  0.95501559    -1.04900
H323        H  0.08657998  0.08434209  0.56326515     0.32410
O324        O  0.06697973  0.06640025  0.54531909    -1.07460
C325        C  0.37277469  0.87276094  0.01049448     0.03230
C326        C  0.38469945  0.82682694  0.00980885    -0.12920
C327        C  0.35298735  0.79586689  0.50424720     0.00730
C328        C  0.31368641  0.81362412  0.52128330    -0.11440
C329        C  0.29588423  0.85281004  0.50413092     0.03230
C330        C  0.32677033  0.88450988  0.00969476    -0.10860
H331        H  0.41789330  0.81591983  0.01838987     0.08820
H332        H  0.29406254  0.79402798  0.54265942     0.06350
H333        H  0.31568865  0.91765018  0.01812183     0.06200
C334        C  0.37278021  0.66952985  0.98956425     0.03230
C335        C  0.32677702  0.65778536  0.99025744    -0.12920
C336        C  0.29588996  0.68947007  0.49590012     0.00730
C337        C  0.31370257  0.72869644  0.47886106    -0.11440
C338        C  0.35294732  0.74643792  0.00454063     0.03230
C339        C  0.38470400  0.71545421  0.99043824    -0.10860
H340        H  0.31570547  0.62468153  0.98167338     0.08820
H341        H  0.29406307  0.74837239  0.45758727     0.06350
H342        H  0.41789928  0.72639488  0.98190513     0.06200
C343        C  0.16950667  0.66953253  0.01046886     0.03230
C344        C  0.21552184  0.65773666  0.48976589    -0.12920
C345        C  0.24640374  0.68946835  0.50417260     0.00730
C346        C  0.22857874  0.72870376  0.52118861    -0.11440
C347        C  0.18931338  0.74641910  0.50405103     0.03230
C348        C  0.15764269  0.71547106  0.48957382    -0.10860
H349        H  0.22656976  0.62468589  0.01847927     0.08820
H350        H  0.24819173  0.74837737  0.54249509     0.06350
H351        H  0.12449704  0.72647587  0.48094354     0.06200
C352        C  0.16951459  0.87272982  0.51134234     0.03230
C353        C  0.21551621  0.88450799  0.51024947    -0.12920
C354        C  0.24640977  0.85281105  0.49578985     0.00730
C355        C  0.22859609  0.81361501  0.47866235    -0.11440
C356        C  0.18930816  0.79586383  0.49573648     0.03230
C357        C  0.15763743  0.82678090  0.51027399    -0.10860
H358        H  0.22659121  0.91759796  0.51889076     0.08820
H359        H  0.24819318  0.79402154  0.45725401     0.06350
H360        H  0.12448956  0.81575792  0.51887283     0.06200
C361        C  0.37277433  0.50992287  0.35150186     0.03230
C362        C  0.38463027  0.51104085  0.30551625    -0.12920
C363        C  0.35290936  0.52548289  0.27459186     0.00730
C364        C  0.31357752  0.54242351  0.29232007    -0.11440
C365        C  0.29586300  0.52536790  0.33161040     0.03230
C366        C  0.32678762  0.51098599  0.36332480    -0.10860
H367        H  0.41779439  0.50253442  0.29446578     0.08820
H368        H  0.29372988  0.56338666  0.27250745     0.06350
H369        H  0.31573961  0.50233998  0.39644959     0.06200
C370        C  0.16953010  0.53239134  0.35152010     0.03230
C371        C  0.15767101  0.53131600  0.30553446    -0.12920
C372        C  0.18938085  0.51687819  0.27459678     0.00730
C373        C  0.22870350  0.49990194  0.29231060    -0.11440
C374        C  0.24643144  0.51692498  0.33161240     0.03230
C375        C  0.21551680  0.53130262  0.36333857    -0.10860
H376        H  0.12450982  0.53984581  0.29449306     0.08820
H377        H  0.24852148  0.47890856  0.27249749     0.06350
H378        H  0.22657158  0.53992282  0.39646844     0.06200
C379        C  0.16962425  0.50832729  0.14837990     0.03230
C380        C  0.15777586  0.50979745  0.19434019    -0.12920
C381        C  0.18927297  0.52501686  0.22510951     0.00730
C382        C  0.22840641  0.54234365  0.20721417    -0.11440
C383        C  0.24635553  0.52513553  0.16807409     0.03230
C384        C  0.21560348  0.50992338  0.13654384    -0.10860
H385        H  0.12473111  0.50094180  0.20547661     0.08820
H386        H  0.24784720  0.56403658  0.22670461     0.06350
H387        H  0.22676062  0.50119286  0.10348066     0.06200
C388        C  0.37266374  0.53403983  0.14836763     0.03230
C389        C  0.38451660  0.53256035  0.19432812    -0.12920
C390        C  0.35300677  0.51737335  0.22509894     0.00730
C391        C  0.31385658  0.50008818  0.20720426    -0.11440
C392        C  0.29591708  0.51731610  0.16807395     0.03230
C393        C  0.32667996  0.53249130  0.13653612    -0.10860
H394        H  0.41757252  0.54137847  0.20546202     0.08820
H395        H  0.29439637  0.47841999  0.22669454     0.06350
H396        H  0.31552814  0.54122423  0.10347206     0.06200
C397        C  0.00914763  0.66962121  0.35163471     0.03230
C398        C  0.01032668  0.71555964  0.36350847    -0.12920
C399        C  0.02508375  0.74641855  0.33190620     0.00730
C400        C  0.04233754  0.72859300  0.29275083    -0.11440
C401        C  0.02511520  0.68945786  0.27486262     0.03230
C402        C  0.01036365  0.65783092  0.30566525    -0.10860
H403        H  0.00163329  0.72660674  0.39661664     0.08820
H404        H  0.06411880  0.74799983  0.27337022     0.06350
H405        H  0.00167042  0.62477189  0.29454464     0.06200
C406        C  0.03301784  0.87263236  0.35163231     0.03230
C407        C  0.03174783  0.82670031  0.36350499    -0.12920
C408        C  0.01691111  0.79586980  0.33191341     0.00730
C409        C  0.99968690  0.81372479  0.29274857    -0.11440
C410        C  0.01698575  0.85283228  0.27486327     0.03230
C411        C  0.03181221  0.88442425  0.30566647    -0.10860
H412        H  0.04044122  0.81563637  0.39660721     0.08820
H413        H  0.97784080  0.79436780  0.27337588     0.06350
H414        H  0.04057611  0.91746448  0.29454675     0.06200
C415        C  0.03137947  0.66950961  0.14845504     0.03230
C416        C  0.03065319  0.65774148  0.19445872    -0.12920
C417        C  0.01672438  0.68957302  0.22543194     0.00730
C418        C  0.99980530  0.72887679  0.20774495    -0.11440
C419        C  0.01674569  0.74647598  0.16836555     0.03230
C420        C  0.03061170  0.71544425  0.13655188    -0.10860
H421        H  0.03907615  0.62458715  0.20549791     0.08820
H422        H  0.97892240  0.74873300  0.22757041     0.06350
H423        H  0.03910907  0.72636777  0.10334982     0.06200
C424        C  0.01081727  0.87277225  0.14845018     0.03230
C425        C  0.01148374  0.88453621  0.19445613    -0.12920
C426        C  0.02541489  0.85271504  0.22543975     0.00730
C427        C  0.04239712  0.81343459  0.20776112    -0.11440
C428        C  0.02549938  0.79581886  0.16836561     0.03230
C429        C  0.01162532  0.82683914  0.13654578    -0.10860
H430        H  0.00302330  0.91768340  0.20548978     0.08820
H431        H  0.06335036  0.79363106  0.22757059     0.06350
H432        H  0.00315975  0.81590932  0.10333699     0.06200
O433        O  0.39454567  0.94843602  0.00781556    -0.80030
O434        O  0.14774328  0.94843417  0.99216758    -0.81580
O435        O  0.02888733  0.89460336  0.42726027    -0.78600
O436        O  0.01710668  0.89477054  0.07298917    -0.76980
O437        O  0.01336444  0.94845123  0.12663429    -0.78770
O438        O  0.02886415  0.94828693  0.37347889    -0.79710
O439        O  0.09408548  0.89475227  0.99588409    -0.81030
O440        O  0.44820335  0.89475370  0.00411049    -0.81320
Eu441      Eu  0.02114439  0.93127088  0.99999603     2.39200
O442        O  0.06658627  0.97569123  0.04543313    -0.88830
O443        O  0.47652819  0.97641730  0.45522948    -0.92440
C444        C  0.40740788  0.90752006  0.00810319     1.02250
C445        C  0.13488071  0.90751770  0.99188250     1.02070
C446        C  0.03101565  0.90740265  0.38634116     1.02020
C447        C  0.01312989  0.90753086  0.11378806     0.99880
H448        H  0.08658408  0.95791370  0.43672454     0.29620
O449        O  0.06698360  0.97585515  0.45467047    -1.01220
H450        H  0.45723350  0.95917497  0.06390904     0.29660
O451        O  0.47616648  0.97676471  0.04496755    -1.03760
O452        O  0.14774263  0.59385226  0.00783545    -0.80990
O453        O  0.39454646  0.59385092  0.99216640    -0.80520
O454        O  0.09381476  0.53008234  0.37362277    -0.78960
O455        O  0.09390958  0.51243092  0.12643362    -0.82300
O456        O  0.44837359  0.52988070  0.12642228    -0.80160
O457        O  0.44849147  0.51220292  0.37360803    -0.78800
O458        O  0.01336562  0.64765369  0.42726116    -0.80330
O459        O  0.02514439  0.64751119  0.07298888    -0.82250
O460        O  0.01339788  0.59396938  0.37347838    -0.78990
O461        O  0.02887598  0.59383193  0.12663389    -0.81670
O462        O  0.14770767  0.52606131  0.42704848    -0.77400
O463        O  0.39459770  0.51621536  0.42703284    -0.77430
O464        O  0.39463521  0.52989736  0.07268655    -0.77080
O465        O  0.14764939  0.51241959  0.07269988    -0.80570
O466        O  0.09408175  0.64752837  0.00409434    -0.80000
O467        O  0.44820752  0.64752821  0.99589832    -0.78330
Eu468      Eu  0.11140188  0.52114293  0.99999893     2.39770
Eu469      Eu  0.43088724  0.52114252  0.99998870     2.39570
Eu470      Eu  0.02115141  0.52113018  0.40980944     2.38400
Eu471      Eu  0.02114123  0.52114019  0.09024802     2.39880
Eu472      Eu  0.02114416  0.61100982  0.99999280     2.39790
O473        O  0.47570574  0.56658710  0.04542449    -0.92740
O474        O  0.06577665  0.56583893  0.45523314    -0.91630
C475        C  0.13487723  0.63476771  0.00810121     1.02430
C476        C  0.40741124  0.63476649  0.99190291     1.01150
C477        C  0.13480666  0.53032330  0.38633095     1.00540
C478        C  0.13481466  0.51012724  0.11359329     1.02550
C479        C  0.40747025  0.53220034  0.11357998     1.01470
C480        C  0.40749902  0.51196726  0.38631392     1.00320
C481        C  0.01122061  0.63485266  0.38634222     1.00370
C482        C  0.02910104  0.63475185  0.11378938     1.02990
H483        H  0.45571217  0.58433784  0.43672929     0.30360
O484        O  0.47531698  0.56639878  0.45467202    -1.04900
H485        H  0.08504300  0.58311539  0.06391765     0.32410
O486        O  0.06611621  0.56552061  0.04497357    -1.07460
C487        C  0.37279085  0.87272637  0.48862893     0.03230
C488        C  0.38466909  0.82677799  0.48972301    -0.12920
C489        C  0.35293761  0.79578739  0.99583067     0.00730
C490        C  0.31365698  0.81341909  0.97869600    -0.11440
C491        C  0.29586410  0.85268173  0.99564702     0.03230
C492        C  0.32678760  0.88450460  0.48968686    -0.10860
H493        H  0.41782362  0.81575209  0.48115367     0.08820
H494        H  0.29411011  0.79376111  0.95736544     0.06350
H495        H  0.31571867  0.91759250  0.48103204     0.06200
C496        C  0.37278662  0.66951950  0.51140246     0.03230
C497        C  0.32678274  0.65773920  0.51028464    -0.12920
C498        C  0.29585282  0.68955035  0.00441164     0.00730
C499        C  0.31362896  0.72873897  0.02156814    -0.11440
C500        C  0.35298171  0.74641729  0.49595907     0.03230
C501        C  0.38466521  0.71547435  0.51041633    -0.10860
H502        H  0.31570766  0.62463030  0.51885062     0.08820
H503        H  0.29412565  0.74823813  0.04311243     0.06350
H504        H  0.41781852  0.72648202  0.51901453     0.06200
C505        C  0.16952015  0.66951645  0.48860965     0.03230
C506        C  0.21551464  0.65778803  0.00986986    -0.12920
C507        C  0.24646641  0.68955428  0.99577463     0.00730
C508        C  0.22872301  0.72872170  0.97856227    -0.11440
C509        C  0.18936945  0.74643108  0.99548971     0.03230
C510        C  0.15758169  0.71545749  0.00954181    -0.10860
H511        H  0.22660340  0.62462685  0.48121066     0.08820
H512        H  0.24830321  0.74823884  0.95711917     0.06350
H513        H  0.12436873  0.72640407  0.01799762     0.06200
C514        C  0.16951280  0.87275683  0.98947112     0.03230
C515        C  0.21552233  0.88450659  0.99017814    -0.12920
C516        C  0.24645619  0.85267735  0.00416590     0.00730
C517        C  0.22869648  0.81343457  0.02117138    -0.11440
C518        C  0.18937938  0.79579245  0.00413855     0.03230
C519        C  0.15758634  0.82682167  0.99021175    -0.10860
H520        H  0.22658817  0.91764530  0.98172541     0.08820
H521        H  0.24832104  0.79375811  0.04239844     0.06350
H522        H  0.12437473  0.81590772  0.98170799     0.06200
C523        C  0.37267233  0.50832985  0.85160325     0.03230
C524        C  0.38452294  0.50987404  0.80564690    -0.12920
C525        C  0.35301412  0.52510381  0.77489734     0.00730
C526        C  0.31385472  0.54235963  0.79281394    -0.11440
C527        C  0.29592241  0.52507419  0.83192495     0.03230
C528        C  0.32669037  0.50985774  0.86343764    -0.10860
H529        H  0.41757663  0.50106503  0.79449986     0.08820
H530        H  0.29439027  0.56405917  0.77335426     0.06350
H531        H  0.31554183  0.50107362  0.89648915     0.06200
C532        C  0.16962785  0.53399752  0.85161922     0.03230
C533        C  0.15777620  0.53249407  0.80566165    -0.12920
C534        C  0.18927364  0.51726310  0.77489995     0.00730
C535        C  0.22842027  0.49996772  0.79280483    -0.11440
C536        C  0.24636633  0.51722137  0.83192742     0.03230
C537        C  0.21560909  0.53243989  0.86345008    -0.10860
H538        H  0.12472688  0.54132907  0.79452211     0.08820
H539        H  0.24784733  0.47822453  0.77335193     0.06350
H540        H  0.22676437  0.54120000  0.89650629     0.06200
C541        C  0.16952741  0.50991697  0.64848060     0.03230
C542        C  0.15767097  0.51096265  0.69446843    -0.12920
C543        C  0.18937657  0.52540064  0.72541233     0.00730
C544        C  0.22868294  0.54241519  0.70770624    -0.11440
C545        C  0.24641847  0.52543389  0.66838951     0.03230
C546        C  0.21551224  0.51105081  0.63665818    -0.10860
H547        H  0.12451584  0.50240642  0.70550727     0.08820
H548        H  0.24850658  0.56337101  0.72755123     0.06350
H549        H  0.22657145  0.50245609  0.60352341     0.06200
C550        C  0.37276736  0.53242592  0.64846868     0.03230
C551        C  0.38462699  0.53137640  0.69445761    -0.12920
C552        C  0.35290234  0.51699060  0.72540513     0.00730
C553        C  0.31357498  0.50002792  0.70770271    -0.11440
C554        C  0.29585591  0.51702351  0.66839208     0.03230
C555        C  0.32677792  0.53134973  0.63664942    -0.10860
H556        H  0.41779533  0.53988630  0.70549344     0.08820
H557        H  0.29372268  0.47911482  0.72755433     0.06350
H558        H  0.31572746  0.53994059  0.60351102     0.06200
C559        C  0.01081492  0.66950159  0.85153597     0.03230
C560        C  0.01153481  0.71543772  0.86343922    -0.12920
C561        C  0.02538389  0.74648070  0.83162962     0.00730
C562        C  0.04235562  0.72889229  0.79225970    -0.11440
C563        C  0.02547135  0.68957500  0.77456422     0.03230
C564        C  0.01155658  0.65773378  0.80553225    -0.10860
H565        H  0.00302249  0.72635405  0.89664034     0.08820
H566        H  0.06327579  0.74874156  0.77246658     0.06350
H567        H  0.00316329  0.62457225  0.79449016     0.06200
C568        C  0.03134389  0.87276777  0.85153292     0.03230
C569        C  0.03053297  0.82683692  0.86343661    -0.12920
C570        C  0.01660495  0.79581871  0.83163712     0.00730
C571        C  0.99966065  0.81343503  0.79225882    -0.11440
C572        C  0.01663119  0.85271872  0.77456298     0.03230
C573        C  0.03061881  0.88453120  0.80553047    -0.10860
H574        H  0.03904467  0.81590567  0.89663263     0.08820
H575        H  0.97867184  0.79363403  0.77247405     0.06350
H576        H  0.03908620  0.91767294  0.79448690     0.06200
C577        C  0.03305638  0.66962781  0.64835718     0.03230
C578        C  0.03185100  0.65783748  0.69432674    -0.12920
C579        C  0.01708456  0.68945555  0.72513284     0.00730
C580        C  0.99983200  0.72857778  0.70725108    -0.11440
C581        C  0.01705703  0.74641242  0.66808703     0.03230
C582        C  0.03183183  0.71556419  0.63648222    -0.10860
H583        H  0.04057071  0.62478550  0.70544565     0.08820
H584        H  0.97809086  0.74799528  0.72666404     0.06350
H585        H  0.04051243  0.72661756  0.60337332     0.06200
C586        C  0.00915102  0.87263514  0.64834765     0.03230
C587        C  0.01029279  0.88442644  0.69431821    -0.12920
C588        C  0.02506207  0.85282545  0.72513957     0.00730
C589        C  0.04237712  0.81372293  0.70727200    -0.11440
C590        C  0.02520366  0.79586830  0.66808763     0.03230
C591        C  0.01042080  0.82670095  0.63647419    -0.10860
H592        H  0.00153313  0.91747175  0.70542724     0.08820
H593        H  0.06419587  0.79436802  0.72666711     0.06350
H594        H  0.00177627  0.81563881  0.60335807     0.06200
O595        O  0.39458915  0.94821464  0.49500628    -0.80030
O596        O  0.14771290  0.94821787  0.50497363    -0.81580
O597        O  0.02513625  0.89477062  0.92699928    -0.78600
O598        O  0.01336926  0.89460409  0.57272365    -0.76980
O599        O  0.01338514  0.94828765  0.62650736    -0.78770
O600        O  0.02887845  0.94844797  0.87335311    -0.79710
O601        O  0.09380267  0.89486117  0.50898858    -0.81030
O602        O  0.44850100  0.89485960  0.49099593    -0.81320
Eu603      Eu  0.02115049  0.93105648  0.49999430     2.39200
O604        O  0.06577532  0.97641457  0.54476274    -0.88830
O605        O  0.47570699  0.97569217  0.95455887    -0.92440
C606        C  0.40750257  0.90753415  0.49073302     1.02250
C607        C  0.13480125  0.90753684  0.50924676     1.02070
C608        C  0.02909283  0.90752802  0.88619821     1.02020
C609        C  0.01121678  0.90740431  0.61364200     0.99880
H610        H  0.08504862  0.95916741  0.93607535     0.29620
O611        O  0.06612143  0.97676113  0.95501975    -1.01220
H612        H  0.45570751  0.95791791  0.56325521     0.29660
O613        O  0.47531376  0.97585663  0.54531356    -1.03760
O614        O  0.14771555  0.59403228  0.49502026    -0.80990
O615        O  0.39458756  0.59403511  0.50497695    -0.80520
O616        O  0.09391691  0.52986809  0.87356543    -0.78960
O617        O  0.09380907  0.51219522  0.62637670    -0.82300
O618        O  0.44848295  0.53008815  0.62636569    -0.80160
O619        O  0.44838412  0.51243396  0.87355370    -0.78800
O620        O  0.01710250  0.64750980  0.92699899    -0.80330
O621        O  0.02889556  0.64765506  0.57272885    -0.82250
O622        O  0.01337942  0.59382631  0.87335533    -0.78990
O623        O  0.02886478  0.59397237  0.62651112    -0.81670
O624        O  0.14765545  0.52988847  0.92730113    -0.77400
O625        O  0.39464242  0.51241528  0.92728530    -0.77430
O626        O  0.39458949  0.52606579  0.57294047    -0.77080
O627        O  0.14770177  0.51621763  0.57295161    -0.80570
O628        O  0.09380693  0.64738872  0.49098799    -0.80000
O629        O  0.44849810  0.64739086  0.50900485    -0.78330
Eu630      Eu  0.11133703  0.52112669  0.49999817     2.39770
Eu631      Eu  0.43096005  0.52112625  0.49998927     2.39570
Eu632      Eu  0.02114872  0.52113994  0.90974174     2.38400
Eu633      Eu  0.02114608  0.52112803  0.59017937     2.39880
Eu634      Eu  0.02115039  0.61120144  0.49999320     2.39790
O635        O  0.47652797  0.56583457  0.54475040    -0.92740
O636        O  0.06658861  0.56659054  0.95456037    -0.91630
C637        C  0.13480520  0.63471185  0.49073257     1.02430
C638        C  0.40749986  0.63471446  0.50926612     1.01150
C639        C  0.13482076  0.53218327  0.88640726     1.00540
C640        C  0.13480157  0.51196371  0.61366988     1.02550
C641        C  0.40749094  0.53033352  0.61365774     1.01470
C642        C  0.40747913  0.51012689  0.88639208     1.00320
C643        C  0.01313459  0.63474665  0.88620004     1.00370
C644        C  0.03102575  0.63485637  0.61364848     1.02990
H645        H  0.45723905  0.58310970  0.93607453     0.30360
O646        O  0.47617084  0.56551814  0.95501543    -1.04900
H647        H  0.08658025  0.58434212  0.56326479     0.32410
O648        O  0.06697991  0.56640032  0.54531879    -1.07460
C649        C  0.87277443  0.37276125  0.01049510     0.03230
C650        C  0.88469926  0.32682725  0.00980957    -0.12920
C651        C  0.85298722  0.29586669  0.50424804     0.00730
C652        C  0.81368607  0.31362375  0.52128375    -0.11440
C653        C  0.79588401  0.35280973  0.50413144     0.03230
C654        C  0.82677003  0.38451008  0.00969522    -0.10860
H655        H  0.91789311  0.31592021  0.01839073     0.08820
H656        H  0.79406197  0.29402740  0.54265942     0.06350
H657        H  0.81568826  0.41765038  0.01812218     0.06200
C658        C  0.87278021  0.16952986  0.98956555     0.03230
C659        C  0.82677702  0.15778537  0.99025851    -0.12920
C660        C  0.79588996  0.18946975  0.49590059     0.00730
C661        C  0.81370277  0.22869607  0.47886152    -0.11440
C662        C  0.85294719  0.24643808  0.00454133     0.03230
C663        C  0.88470401  0.21545425  0.99043944    -0.10860
H664        H  0.81570554  0.12468149  0.98167455     0.08820
H665        H  0.79406362  0.24837179  0.45758715     0.06350
H666        H  0.91789936  0.22639488  0.98190653     0.06200
C667        C  0.66950656  0.16953238  0.01046868     0.03230
C668        C  0.71552184  0.15773624  0.48976575    -0.12920
C669        C  0.74640364  0.18946801  0.50417258     0.00730
C670        C  0.72857845  0.22870334  0.52118855    -0.11440
C671        C  0.68931317  0.24641866  0.50405071     0.03230
C672        C  0.65764261  0.21547057  0.48957335    -0.10860
H673        H  0.72656968  0.12468583  0.01847927     0.08820
H674        H  0.74819116  0.24837685  0.54249539     0.06350
H675        H  0.62449698  0.22647532  0.48094290     0.06200
C676        C  0.66951425  0.37272954  0.51134124     0.03230
C677        C  0.71551588  0.38450770  0.51024879    -0.12920
C678        C  0.74640963  0.35281066  0.49578982     0.00730
C679        C  0.72859617  0.31361450  0.47866237    -0.11440
C680        C  0.68930802  0.29586341  0.49573606     0.03230
C681        C  0.65763707  0.32678059  0.51027291    -0.10860
H682        H  0.72659080  0.41759769  0.51889007     0.08820
H683        H  0.74819362  0.29402081  0.45725462     0.06350
H684        H  0.62448909  0.31575767  0.51887141     0.06200
C685        C  0.87277416  0.00992153  0.35150259     0.03230
C686        C  0.88463011  0.01103832  0.30551690    -0.12920
C687        C  0.85290864  0.02547818  0.27459210     0.00730
C688        C  0.81357661  0.04241839  0.29231989    -0.11440
C689        C  0.79586242  0.02536363  0.33161053     0.03230
C690        C  0.82678737  0.01098389  0.36332558    -0.10860
H691        H  0.91779449  0.00253257  0.29446668     0.08820
H692        H  0.79372820  0.06337958  0.27250636     0.06350
H693        H  0.81573958  0.00233893  0.39645072     0.06200
C694        C  0.66953010  0.03238975  0.35152089     0.03230
C695        C  0.65767095  0.03131620  0.30553522    -0.12920
C696        C  0.68938029  0.01687824  0.27459712     0.00730
C697        C  0.72870213  0.99989982  0.29231054    -0.11440
C698        C  0.74643078  0.01692126  0.33161282     0.03230
C699        C  0.71551672  0.03129917  0.36333935    -0.10860
H700        H  0.62451004  0.03984746  0.29449409     0.08820
H701        H  0.74851898  0.97890569  0.27249712     0.06350
H702        H  0.72657183  0.03991823  0.39646940     0.06200
C703        C  0.66962367  0.00832794  0.14838054     0.03230
C704        C  0.65777531  0.00979830  0.19434078    -0.12920
C705        C  0.68927239  0.02501790  0.22511002     0.00730
C706        C  0.72840582  0.04234476  0.20721449    -0.11440
C707        C  0.74635495  0.02513608  0.16807452     0.03230
C708        C  0.71560285  0.00992373  0.13654448    -0.10860
H709        H  0.62473061  0.00094255  0.20547725     0.08820
H710        H  0.74784571  0.06403964  0.22670385     0.06350
H711        H  0.72675995  0.00119269  0.10348143     0.06200
C712        C  0.87266371  0.03403511  0.14836815     0.03230
C713        C  0.88451663  0.03255421  0.19432858    -0.12920
C714        C  0.85300609  0.01736844  0.22509921     0.00730
C715        C  0.81385500  0.00008546  0.20720432    -0.11440
C716        C  0.79591623  0.01731494  0.16807448     0.03230
C717        C  0.82667982  0.03248875  0.13653667    -0.10860
H718        H  0.91757291  0.04137083  0.20546261     0.08820
H719        H  0.79439375  0.97841803  0.22669428     0.06350
H720        H  0.81552836  0.04122271  0.10347276     0.06200
C721        C  0.50914727  0.16962090  0.35163499     0.03230
C722        C  0.51032371  0.21555952  0.36350880    -0.12920
C723        C  0.52507824  0.24641934  0.33190614     0.00730
C724        C  0.54233291  0.22859479  0.29275107    -0.11440
C725        C  0.52511327  0.18945865  0.27486286     0.03230
C726        C  0.51036412  0.15783058  0.30566546    -0.10860
H727        H  0.50163017  0.22660611  0.39661710     0.08820
H728        H  0.56411021  0.24800424  0.27336923     0.06350
H729        H  0.50167314  0.12477098  0.29454482     0.06200
C730        C  0.53301698  0.37263217  0.35163259     0.03230
C731        C  0.53174384  0.32670031  0.36350535    -0.12920
C732        C  0.51690582  0.29587065  0.33191362     0.00730
C733        C  0.49968401  0.31372664  0.29274786    -0.11440
C734        C  0.51698619  0.35283291  0.27486302     0.03230
C735        C  0.53181369  0.38442395  0.30566670    -0.10860
H736        H  0.54043587  0.31563592  0.39660777     0.08820
H737        H  0.47783529  0.29437199  0.27337544     0.06350
H738        H  0.54058004  0.41746362  0.29454723     0.06200
C739        C  0.53137913  0.16950929  0.14845533     0.03230
C740        C  0.53065083  0.15774114  0.19445902    -0.12920
C741        C  0.51672395  0.18957382  0.22543188     0.00730
C742        C  0.49980859  0.22887898  0.20774451    -0.11440
C743        C  0.51675094  0.24647693  0.16836571     0.03230
C744        C  0.53061481  0.21544410  0.13655209    -0.10860
H745        H  0.53907102  0.12458619  0.20549844     0.08820
H746        H  0.47892835  0.24873745  0.22757011     0.06350
H747        H  0.53911324  0.22636696  0.10335009     0.06200
C748        C  0.51081812  0.37277232  0.14845022     0.03230
C749        C  0.51148365  0.38453611  0.19445615    -0.12920
C750        C  0.52541697  0.35271585  0.22543978     0.00730
C751        C  0.54240210  0.31343651  0.20776104    -0.11440
C752        C  0.52550512  0.29581979  0.16836529     0.03230
C753        C  0.51162869  0.32683934  0.13654580    -0.10860
H754        H  0.50302096  0.41768271  0.20548983     0.08820
H755        H  0.56335930  0.29363543  0.22756932     0.06350
H756        H  0.50316323  0.31590909  0.10333713     0.06200
O757        O  0.89454541  0.44843645  0.00781616    -0.80030
O758        O  0.64774313  0.44843415  0.99216694    -0.81580
O759        O  0.52888665  0.39460345  0.42726044    -0.78600
O760        O  0.51710682  0.39477085  0.07298924    -0.76980
O761        O  0.51336389  0.44845147  0.12663439    -0.78770
O762        O  0.52886436  0.44828684  0.37347887    -0.79710
O763        O  0.59408525  0.39475234  0.99588390    -0.81030
O764        O  0.94820307  0.39475413  0.00411063    -0.81320
Eu765      Eu  0.52114419  0.43127114  0.99999608     2.39200
O766        O  0.56658623  0.47569154  0.04543292    -0.88830
O767        O  0.97652811  0.47641766  0.45522921    -0.92440
C768        C  0.90740760  0.40752047  0.00810366     1.02250
C769        C  0.63488049  0.40751770  0.99188204     1.02070
C770        C  0.53101529  0.40740259  0.38634131     1.02020
C771        C  0.51312983  0.40753108  0.11378815     0.99880
H772        H  0.58658401  0.45791365  0.43672439     0.29620
O773        O  0.56698360  0.47585518  0.45467031    -1.01220
H774        H  0.95723328  0.45917564  0.06390913     0.29660
O775        O  0.97616637  0.47676518  0.04496757    -1.03760
O776        O  0.64774259  0.09385204  0.00783545    -0.80990
O777        O  0.89454647  0.09385086  0.99216769    -0.80520
O778        O  0.59381484  0.03008132  0.37362338    -0.78960
O779        O  0.59390910  0.01243118  0.12643418    -0.82300
O780        O  0.94837354  0.02987765  0.12642267    -0.80160
O781        O  0.94849125  0.01220289  0.37360860    -0.78800
O782        O  0.51336571  0.14765338  0.42726148    -0.80330
O783        O  0.52514414  0.14751095  0.07298915    -0.82250
O784        O  0.51339855  0.09396907  0.37347870    -0.78990
O785        O  0.52887467  0.09383159  0.12663411    -0.81670
O786        O  0.64770766  0.02605999  0.42704918    -0.77400
O787        O  0.89459748  0.01621543  0.42703339    -0.77430
O788        O  0.89463510  0.02989440  0.07268701    -0.77080
O789        O  0.64764900  0.01241986  0.07270053    -0.80570
O790        O  0.59408165  0.14752810  0.00409457    -0.80000
O791        O  0.94820753  0.14752817  0.99589893    -0.78330
Eu792      Eu  0.61140179  0.02114265  0.99999943     2.39770
Eu793      Eu  0.93088730  0.02114229  0.99998898     2.39570
Eu794      Eu  0.52115144  0.02112981  0.40980979     2.38400
Eu795      Eu  0.52114106  0.02113974  0.09024813     2.39880
Eu796      Eu  0.52114408  0.11100953  0.99999314     2.39790
O797        O  0.97570555  0.06658699  0.04542488    -0.92740
O798        O  0.56577655  0.06583854  0.45523361    -0.91630
C799        C  0.63487716  0.13476749  0.00810122     1.02430
C800        C  0.90741124  0.13476646  0.99190401     1.01150
C801        C  0.63480670  0.03032197  0.38633165     1.00540
C802        C  0.63481418  0.01012763  0.11359392     1.02550
C803        C  0.90747016  0.03219664  0.11358046     1.01470
C804        C  0.90749882  0.01196706  0.38631453     1.00320
C805        C  0.51122096  0.13485235  0.38634253     1.00370
C806        C  0.52910023  0.13475154  0.11378966     1.02990
H807        H  0.95571199  0.08433789  0.43672946     0.30360
O808        O  0.97531675  0.06639878  0.45467220    -1.04900
H809        H  0.58504279  0.08311517  0.06391811     0.32410
O810        O  0.56611608  0.06552036  0.04497398    -1.07460
C811        C  0.87279077  0.37272642  0.48863050     0.03230
C812        C  0.88466910  0.32677800  0.48972450    -0.12920
C813        C  0.85293754  0.29578760  0.99583128     0.00730
C814        C  0.81365695  0.31341924  0.97869644    -0.11440
C815        C  0.79586390  0.35268184  0.99564739     0.03230
C816        C  0.82678747  0.38450452  0.48968808    -0.10860
H817        H  0.91782375  0.31575223  0.48115544     0.08820
H818        H  0.79411023  0.29376125  0.95736573     0.06350
H819        H  0.81571855  0.41759244  0.48103331     0.06200
C820        C  0.87278648  0.16951926  0.51140372     0.03230
C821        C  0.82678261  0.15773896  0.51028558    -0.12920
C822        C  0.79585270  0.18955047  0.00441216     0.00730
C823        C  0.81362868  0.22873922  0.02156853    -0.11440
C824        C  0.85298174  0.24641703  0.49595989     0.03230
C825        C  0.88466507  0.21547412  0.51041762    -0.10860
H826        H  0.81570747  0.12463007  0.51885153     0.08820
H827        H  0.79412510  0.24823858  0.04311236     0.06350
H828        H  0.91781830  0.22648180  0.51901611     0.06200
C829        C  0.66952012  0.16951596  0.48860934     0.03230
C830        C  0.71551455  0.15778796  0.00986983    -0.12920
C831        C  0.74646634  0.18955430  0.99577484     0.00730
C832        C  0.72872297  0.22872173  0.97856245    -0.11440
C833        C  0.68936929  0.24643102  0.99548968     0.03230
C834        C  0.65758151  0.21545734  0.00954157    -0.10860
H835        H  0.72660348  0.12462643  0.48121065     0.08820
H836        H  0.74830330  0.24823898  0.95711959     0.06350
H837        H  0.62436850  0.22640387  0.01799726     0.06200
C838        C  0.66951255  0.37275678  0.98947063     0.03230
C839        C  0.71552210  0.38450654  0.99017780    -0.12920
C840        C  0.74645590  0.35267739  0.00416590     0.00730
C841        C  0.72869609  0.31343467  0.02117144    -0.11440
C842        C  0.68937909  0.29579244  0.00413843     0.03230
C843        C  0.65758610  0.32682161  0.99021134    -0.10860
H844        H  0.72658796  0.41764523  0.98172501     0.08820
H845        H  0.74832039  0.29375843  0.04239897     0.06350
H846        H  0.62437454  0.31590764  0.98170747     0.06200
C847        C  0.87267219  0.00832833  0.85160394     0.03230
C848        C  0.88452277  0.00987150  0.80564750    -0.12920
C849        C  0.85301339  0.02509935  0.77489760     0.00730
C850        C  0.81385384  0.04235480  0.79281390    -0.11440
C851        C  0.79592183  0.02506996  0.83192512     0.03230
C852        C  0.82669015  0.00985543  0.86343839    -0.10860
H853        H  0.91757670  0.00106315  0.79450066     0.08820
H854        H  0.79438867  0.06405268  0.77335347     0.06350
H855        H  0.81554182  0.00107220  0.89649021     0.06200
C856        C  0.66962789  0.03399608  0.85161996     0.03230
C857        C  0.65777618  0.03249433  0.80566235    -0.12920
C858        C  0.68927308  0.01726312  0.77490025     0.00730
C859        C  0.72841890  0.99996562  0.79280477    -0.11440
C860        C  0.74636567  0.01721771  0.83192784     0.03230
C861        C  0.71560902  0.03243658  0.86345082    -0.10860
H862        H  0.62472716  0.04133078  0.79452307     0.08820
H863        H  0.74784464  0.97822133  0.77335179     0.06350
H864        H  0.72676462  0.04119559  0.89650721     0.06200
C865        C  0.66952679  0.00991771  0.64848117     0.03230
C866        C  0.65767041  0.01096346  0.69446897    -0.12920
C867        C  0.68937597  0.02540162  0.72541280     0.00730
C868        C  0.72868226  0.04241640  0.70770652    -0.11440
C869        C  0.74641781  0.02543465  0.66838985     0.03230
C870        C  0.71551155  0.01105137  0.63665873    -0.10860
H871        H  0.62451534  0.00240706  0.70550788     0.08820
H872        H  0.74850510  0.06337400  0.72755058     0.06350
H873        H  0.72657073  0.00245619  0.60352407     0.06200
C874        C  0.87276724  0.03242101  0.64846910     0.03230
C875        C  0.88462694  0.03137022  0.69445799    -0.12920
C876        C  0.85290154  0.01698599  0.72540541     0.00730
C877        C  0.81357321  0.00002565  0.70770286    -0.11440
C878        C  0.79585496  0.01702256  0.66839257     0.03230
C879        C  0.82677771  0.03134706  0.63664985    -0.10860
H880        H  0.91779566  0.03987849  0.70549392     0.08820
H881        H  0.79371977  0.97911365  0.72755432     0.06350
H882        H  0.81572764  0.03993878  0.60351155     0.06200
C883        C  0.51081468  0.16950136  0.85153623     0.03230
C884        C  0.51153190  0.21543766  0.86343952    -0.12920
C885        C  0.52537809  0.24648154  0.83162946     0.00730
C886        C  0.54235045  0.22889422  0.79225970    -0.11440
C887        C  0.52546910  0.18957583  0.77456434     0.03230
C888        C  0.51155707  0.15773348  0.80553242    -0.10860
H889        H  0.50301959  0.22635346  0.89664081     0.08820
H890        H  0.56326649  0.24874603  0.77246533     0.06350
H891        H  0.50316616  0.12457135  0.79449036     0.06200
C892        C  0.53134312  0.37276763  0.85153321     0.03230
C893        C  0.53052898  0.32683694  0.86343694    -0.12920
C894        C  0.51659937  0.29581963  0.83163735     0.00730
C895        C  0.49965725  0.31343707  0.79225828    -0.11440
C896        C  0.51663139  0.35271944  0.77456282     0.03230
C897        C  0.53062034  0.38453095  0.80553073    -0.10860
H898        H  0.53903946  0.31590517  0.89663311     0.08820
H899        H  0.47866585  0.29363831  0.77247370     0.06350
H900        H  0.53909034  0.41767210  0.79448739     0.06200
C901        C  0.53305609  0.16962741  0.64835747     0.03230
C902        C  0.53184859  0.15783707  0.69432701    -0.12920
C903        C  0.51708375  0.18945626  0.72513268     0.00730
C904        C  0.49983468  0.22857979  0.70725043    -0.11440
C905        C  0.51706195  0.24641331  0.66808715     0.03230
C906        C  0.53183493  0.21556399  0.63648246    -0.10860
H907        H  0.54056568  0.12478449  0.70544618     0.08820
H908        H  0.47809609  0.24799961  0.72666353     0.06350
H909        H  0.54051675  0.22661674  0.60337367     0.06200
C910        C  0.50915209  0.37263518  0.64834773     0.03230
C911        C  0.51029286  0.38442632  0.69431826    -0.12920
C912        C  0.52506396  0.35282623  0.72513970     0.00730
C913        C  0.54238163  0.31372468  0.70727213    -0.11440
C914        C  0.52520912  0.29586917  0.66808740     0.03230
C915        C  0.51042425  0.32670114  0.63647423    -0.10860
H916        H  0.50153111  0.41747109  0.70542729     0.08820
H917        H  0.56420420  0.29437228  0.72666604     0.06350
H918        H  0.50177996  0.31563861  0.60335818     0.06200
O919        O  0.89458898  0.44821487  0.49500757    -0.80030
O920        O  0.64771273  0.44821765  0.50497254    -0.81580
O921        O  0.52513570  0.39477073  0.92699946    -0.78600
O922        O  0.51336963  0.39460437  0.57272376    -0.76980
O923        O  0.51338475  0.44828789  0.62650751    -0.78770
O924        O  0.52887870  0.44844789  0.87335314    -0.79710
O925        O  0.59380238  0.39486111  0.50898803    -0.81030
O926        O  0.94850089  0.39485993  0.49099654    -0.81320
Eu927      Eu  0.52115033  0.43105677  0.49999436     2.39200
O928        O  0.56577538  0.47641486  0.54476254    -0.88830
O929        O  0.97570695  0.47569246  0.95455868    -0.92440
C930        C  0.90750242  0.40753437  0.49073424     1.02250
C931        C  0.63480099  0.40753665  0.50924579     1.02070
C932        C  0.52909258  0.40752798  0.88619838     1.02020
C933        C  0.51121694  0.40740451  0.61364213     0.99880
H934        H  0.58504854  0.45916738  0.93607522     0.29620
O935        O  0.56612140  0.47676115  0.95501962    -1.01220
H936        H  0.95570734  0.45791877  0.56325530     0.29660
O937        O  0.97531372  0.47585727  0.54531357    -1.03760
O938        O  0.64771554  0.09403178  0.49502015    -0.80990
O939        O  0.89458748  0.09403483  0.50497828    -0.80520
O940        O  0.59391701  0.02986715  0.87356600    -0.78960
O941        O  0.59380854  0.01219544  0.62637723    -0.82300
O942        O  0.94848276  0.03008499  0.62636603    -0.80160
O943        O  0.94838392  0.01243383  0.87355418    -0.78800
O944        O  0.51710273  0.14750959  0.92699930    -0.80330
O945        O  0.52889537  0.14765473  0.57272913    -0.82250
O946        O  0.51338017  0.09382608  0.87335562    -0.78990
O947        O  0.52886347  0.09397196  0.62651131    -0.81670
O948        O  0.64765548  0.02988740  0.92730178    -0.77400
O949        O  0.89464229  0.01241511  0.92728584    -0.77430
O950        O  0.89458933  0.02606258  0.57294078    -0.77080
O951        O  0.64770129  0.01621801  0.57295223    -0.80570
O952        O  0.59380690  0.14738822  0.49098819    -0.80000
O953        O  0.94849794  0.14739070  0.50900538    -0.78330
Eu954      Eu  0.61133687  0.02112634  0.49999868     2.39770
Eu955      Eu  0.93096006  0.02112604  0.49998953     2.39570
Eu956      Eu  0.52114875  0.02113966  0.90974204     2.38400
Eu957      Eu  0.52114582  0.02112748  0.59017947     2.39880
Eu958      Eu  0.52115025  0.11120109  0.49999355     2.39790
O959        O  0.97652768  0.06583453  0.54475078    -0.92740
O960        O  0.56658856  0.06659020  0.95456082    -0.91630
C961        C  0.63480517  0.13471135  0.49073249     1.02430
C962        C  0.90749974  0.13471423  0.50926720     1.01150
C963        C  0.63482083  0.03218211  0.88640791     1.00540
C964        C  0.63480103  0.01196417  0.61367048     1.02550
C965        C  0.90749076  0.03032961  0.61365813     1.01470
C966        C  0.90747898  0.01012649  0.88639265     1.00320
C967        C  0.51313507  0.13474643  0.88620031     1.00370
C968        C  0.53102498  0.13485598  0.61364876     1.02990
H969        H  0.95723881  0.08310976  0.93607477     0.30360
O970        O  0.97617061  0.06551813  0.95501561    -1.04900
H971        H  0.58657992  0.08434179  0.56326527     0.32410
O972        O  0.56697968  0.06639997  0.54531918    -1.07460
C973        C  0.87277477  0.87276102  0.01049448     0.03230
C974        C  0.88469955  0.82682702  0.00980890    -0.12920
C975        C  0.85298747  0.79586696  0.50424730     0.00730
C976        C  0.81368651  0.81362415  0.52128338    -0.11440
C977        C  0.79588430  0.85281006  0.50413101     0.03230
C978        C  0.82677040  0.88450993  0.00969477    -0.10860
H979        H  0.91789342  0.81591994  0.01838991     0.08820
H980        H  0.79406264  0.79402798  0.54265947     0.06350
H981        H  0.81568870  0.91765023  0.01812181     0.06200
C982        C  0.87278029  0.66952988  0.98956431     0.03230
C983        C  0.82677711  0.65778539  0.99025754    -0.12920
C984        C  0.79589009  0.68947010  0.49590015     0.00730
C985        C  0.81370270  0.72869650  0.47886113    -0.11440
C986        C  0.85294744  0.74643794  0.00454078     0.03230
C987        C  0.88470410  0.71545423  0.99043834    -0.10860
H988        H  0.81570555  0.62468156  0.98167347     0.08820
H989        H  0.79406319  0.74837246  0.45758735     0.06350
H990        H  0.91789938  0.72639489  0.98190521     0.06200
C991        C  0.66950680  0.66953247  0.01046906     0.03230
C992        C  0.71552199  0.65773660  0.48976596    -0.12920
C993        C  0.74640388  0.68946833  0.50417263     0.00730
C994        C  0.72857887  0.72870372  0.52118866    -0.11440
C995        C  0.68931351  0.74641903  0.50405107     0.03230
C996        C  0.65764282  0.71547099  0.48957388    -0.10860
H997        H  0.72656991  0.62468585  0.01847947     0.08820
H998        H  0.74819186  0.74837735  0.54249513     0.06350
H999        H  0.62449717  0.72647580  0.48094361     0.06200
C1000       C  0.66951464  0.87272968  0.51134252     0.03230
C1001       C  0.71551625  0.88450790  0.51024965    -0.12920
C1002       C  0.74640984  0.85281103  0.49578994     0.00730
C1003       C  0.72859618  0.81361498  0.47866240    -0.11440
C1004       C  0.68930827  0.79586375  0.49573654     0.03230
C1005       C  0.65763752  0.82678075  0.51027413    -0.10860
H1006       H  0.72659122  0.91759786  0.51889097     0.08820
H1007       H  0.74819326  0.79402157  0.45725400     0.06350
H1008       H  0.62448967  0.81575773  0.51887297     0.06200
C1009       C  0.87277432  0.50992266  0.35150183     0.03230
C1010       C  0.88463026  0.51104067  0.30551622    -0.12920
C1011       C  0.85290938  0.52548282  0.27459186     0.00730
C1012       C  0.81357757  0.54242349  0.29232009    -0.11440
C1013       C  0.79586302  0.52536785  0.33161040     0.03230
C1014       C  0.82678761  0.51098583  0.36332477    -0.10860
H1015       H  0.91779437  0.50253420  0.29446575     0.08820
H1016       H  0.79372998  0.56338675  0.27250752     0.06350
H1017       H  0.81573959  0.50233978  0.39644955     0.06200
C1018       C  0.66953015  0.53239133  0.35152014     0.03230
C1019       C  0.65767104  0.53131601  0.30553450    -0.12920
C1020       C  0.68938087  0.51687820  0.27459680     0.00730
C1021       C  0.72870352  0.49990194  0.29231060    -0.11440
C1022       C  0.74643147  0.51692497  0.33161240     0.03230
C1023       C  0.71551685  0.53130260  0.36333859    -0.10860
H1024       H  0.62450985  0.53984583  0.29449311     0.08820
H1025       H  0.74852149  0.47890856  0.27249748     0.06350
H1026       H  0.72657164  0.53992278  0.39646846     0.06200
C1027       C  0.66962423  0.50832741  0.14837993     0.03230
C1028       C  0.65777585  0.50979757  0.19434022    -0.12920
C1029       C  0.68927299  0.52501691  0.22510955     0.00730
C1030       C  0.72840645  0.54234367  0.20721421    -0.11440
C1031       C  0.74635554  0.52513557  0.16807412     0.03230
C1032       C  0.71560347  0.50992347  0.13654385    -0.10860
H1033       H  0.62473110  0.50094193  0.20547664     0.08820
H1034       H  0.74784728  0.56403651  0.22670469     0.06350
H1035       H  0.72676059  0.50119296  0.10348068     0.06200
C1036       C  0.87266376  0.53403981  0.14836762     0.03230
C1037       C  0.88451662  0.53256032  0.19432811    -0.12920
C1038       C  0.85300678  0.51737332  0.22509893     0.00730
C1039       C  0.81385659  0.50008817  0.20720425    -0.11440
C1040       C  0.79591709  0.51731610  0.16807395     0.03230
C1041       C  0.82667997  0.53249130  0.13653612    -0.10860
H1042       H  0.91757255  0.54137842  0.20546201     0.08820
H1043       H  0.79439637  0.47841998  0.22669453     0.06350
H1044       H  0.81552816  0.54122424  0.10347206     0.06200
C1045       C  0.50914581  0.66962105  0.35163467     0.03230
C1046       C  0.51032246  0.71555967  0.36350847    -0.12920
C1047       C  0.52507690  0.74641937  0.33190569     0.00730
C1048       C  0.54233121  0.72859476  0.29275054    -0.11440
C1049       C  0.52511142  0.68945874  0.27486244     0.03230
C1050       C  0.51036234  0.65783069  0.30566511    -0.10860
H1051       H  0.50162927  0.72660630  0.39661684     0.08820
H1052       H  0.56410772  0.74800446  0.27336824     0.06350
H1053       H  0.50167137  0.62477106  0.29454454     0.06200
C1054       C  0.53301716  0.87263196  0.35163252     0.03230
C1055       C  0.53174304  0.82670012  0.36350522    -0.12920
C1056       C  0.51690519  0.79587076  0.33191316     0.00730
C1057       C  0.49968463  0.81372698  0.29274698    -0.11440
C1058       C  0.51698779  0.85283293  0.27486258     0.03230
C1059       C  0.53181498  0.88442381  0.30566660    -0.10860
H1060       H  0.54043421  0.81563554  0.39660780     0.08820
H1061       H  0.47783661  0.79437241  0.27337375     0.06350
H1062       H  0.54058196  0.91746338  0.29454736     0.06200
C1063       C  0.53138021  0.66950940  0.14845524     0.03230
C1064       C  0.53065057  0.65774119  0.19445888    -0.12920
C1065       C  0.51672279  0.68957382  0.22543136     0.00730
C1066       C  0.49980827  0.72887922  0.20774357    -0.11440
C1067       C  0.51675206  0.74647704  0.16836535     0.03230
C1068       C  0.53061665  0.71544418  0.13655208    -0.10860
H1069       H  0.53907028  0.62458617  0.20549849     0.08820
H1070       H  0.47892727  0.74873773  0.22756843     0.06350
H1071       H  0.53911608  0.72636702  0.10335033     0.06200
C1072       C  0.51081899  0.87277204  0.14845012     0.03230
C1073       C  0.51148502  0.88453591  0.19445596    -0.12920
C1074       C  0.52541908  0.85271589  0.22543946     0.00730
C1075       C  0.54240417  0.81343649  0.20776060    -0.11440
C1076       C  0.52550671  0.79581972  0.16836502     0.03230
C1077       C  0.51162958  0.82683913  0.13654576    -0.10860
H1078       H  0.50302213  0.91768246  0.20548970     0.08820
H1079       H  0.56336238  0.79363579  0.22756835     0.06350
H1080       H  0.50316364  0.81590880  0.10333724     0.06200
O1081       O  0.89454573  0.94843613  0.00781564    -0.80030
O1082       O  0.64774329  0.94843401  0.99216777    -0.81580
O1083       O  0.52888700  0.89460308  0.42726041    -0.78600
O1084       O  0.51710698  0.89477041  0.07298912    -0.76980
O1085       O  0.51336450  0.94845103  0.12663429    -0.78770
O1086       O  0.52886427  0.94828659  0.37347896    -0.79710
O1087       O  0.59408547  0.89475211  0.99588409    -0.81030
O1088       O  0.94820341  0.89475383  0.00411038    -0.81320
Eu1089     Eu  0.52114434  0.93127073  0.99999606     2.39200
O1090       O  0.56658621  0.97569104  0.04543319    -0.88830
O1091       O  0.97652817  0.97641755  0.45522947    -0.92440
C1092       C  0.90740794  0.90752017  0.00810318     1.02250
C1093       C  0.63488072  0.90751755  0.99188260     1.02070
C1094       C  0.53101544  0.90740232  0.38634130     1.02020
C1095       C  0.51313032  0.90753068  0.11378803     0.99880
H1096       H  0.58658412  0.95791335  0.43672467     0.29620
O1097       O  0.56698365  0.97585484  0.45467056    -1.01220
H1098       H  0.95723358  0.95917519  0.06390903     0.29660
O1099       O  0.97616658  0.97676491  0.04496756    -1.03760
O1100       O  0.64774273  0.59385221  0.00783558    -0.80990
O1101       O  0.89454649  0.59385092  0.99216642    -0.80520
O1102       O  0.59381482  0.53008229  0.37362280    -0.78960
O1103       O  0.59390956  0.51243103  0.12643364    -0.82300
O1104       O  0.94837362  0.52988075  0.12642226    -0.80160
O1105       O  0.94849144  0.51220279  0.37360800    -0.78800
O1106       O  0.51336528  0.64765365  0.42726113    -0.80330
O1107       O  0.52514474  0.64751120  0.07298902    -0.82250
O1108       O  0.51339769  0.59396929  0.37347839    -0.78990
O1109       O  0.52887586  0.59383182  0.12663394    -0.81670
O1110       O  0.64770773  0.52606129  0.42704852    -0.77400
O1111       O  0.89459767  0.51621524  0.42703280    -0.77430
O1112       O  0.89463522  0.52989729  0.07268654    -0.77080
O1113       O  0.64764938  0.51241963  0.07269991    -0.80570
O1114       O  0.59408188  0.64752836  0.00409443    -0.80000
O1115       O  0.94820756  0.64752820  0.99589830    -0.78330
Eu1116     Eu  0.61140190  0.52114293  0.99999895     2.39770
Eu1117     Eu  0.93088722  0.52114248  0.99998866     2.39570
Eu1118     Eu  0.52115148  0.52113015  0.40980947     2.38400
Eu1119     Eu  0.52114118  0.52114017  0.09024803     2.39880
Eu1120     Eu  0.52114421  0.61100991  0.99999283     2.39790
O1121       O  0.97570572  0.56658703  0.04542447    -0.92740
O1122       O  0.56577670  0.56583895  0.45523316    -0.91630
C1123       C  0.63487735  0.63476767  0.00810135     1.02430
C1124       C  0.90741129  0.63476650  0.99190293     1.01150
C1125       C  0.63480672  0.53032327  0.38633099     1.00540
C1126       C  0.63481464  0.51012733  0.11359332     1.02550
C1127       C  0.90747027  0.53220033  0.11357996     1.01470
C1128       C  0.90749900  0.51196709  0.38631389     1.00320
C1129       C  0.51122007  0.63485257  0.38634222     1.00370
C1130       C  0.52910125  0.63475175  0.11378950     1.02990
H1131       H  0.95571210  0.58433792  0.43672917     0.30360
O1132       O  0.97531687  0.56639884  0.45467192    -1.04900
H1133       H  0.58504297  0.58311532  0.06391766     0.32410
O1134       O  0.56611618  0.56552057  0.04497357    -1.07460
C1135       C  0.87279092  0.87272648  0.48862908     0.03230
C1136       C  0.88466920  0.82677810  0.48972315    -0.12920
C1137       C  0.85293772  0.79578743  0.99583080     0.00730
C1138       C  0.81365707  0.81341908  0.97869613    -0.11440
C1139       C  0.79586418  0.85268173  0.99564711     0.03230
C1140       C  0.82678765  0.88450466  0.48968699    -0.10860
H1141       H  0.91782374  0.81575223  0.48115382     0.08820
H1142       H  0.79411018  0.79376104  0.95736565     0.06350
H1143       H  0.81571871  0.91759256  0.48103218     0.06200
C1144       C  0.87278672  0.66951955  0.51140254     0.03230
C1145       C  0.82678286  0.65773925  0.51028470    -0.12920
C1146       C  0.79585294  0.68955036  0.00441180     0.00730
C1147       C  0.81362909  0.72873898  0.02156830    -0.11440
C1148       C  0.85298184  0.74641735  0.49595915     0.03230
C1149       C  0.88466532  0.71547440  0.51041642    -0.10860
H1150       H  0.81570777  0.62463034  0.51885067     0.08820
H1151       H  0.79412580  0.74823812  0.04311263     0.06350
H1152       H  0.91781863  0.72648205  0.51901464     0.06200
C1153       C  0.66952029  0.66951638  0.48860973     0.03230
C1154       C  0.71551478  0.65778798  0.00987006    -0.12920
C1155       C  0.74646653  0.68955425  0.99577480     0.00730
C1156       C  0.72872312  0.72872164  0.97856242    -0.11440
C1157       C  0.68936957  0.74643101  0.99548989     0.03230
C1158       C  0.65758183  0.71545743  0.00954202    -0.10860
H1159       H  0.72660356  0.62462680  0.48121074     0.08820
H1160       H  0.74830329  0.74823876  0.95711926     0.06350
H1161       H  0.62436887  0.72640401  0.01799785     0.06200
C1162       C  0.66951283  0.87275672  0.98947123     0.03230
C1163       C  0.71552236  0.88450652  0.99017824    -0.12920
C1164       C  0.74645626  0.85267732  0.00416600     0.00730
C1165       C  0.72869659  0.81343453  0.02117150    -0.11440
C1166       C  0.68937949  0.79579237  0.00413870     0.03230
C1167       C  0.65758642  0.82682155  0.99021190    -0.10860
H1168       H  0.72658816  0.91764524  0.98172548     0.08820
H1169       H  0.74832118  0.79375809  0.04239855     0.06350
H1170       H  0.62437482  0.81590757  0.98170817     0.06200
C1171       C  0.87267231  0.50832964  0.85160322     0.03230
C1172       C  0.88452293  0.50987385  0.80564689    -0.12920
C1173       C  0.85301415  0.52510374  0.77489734     0.00730
C1174       C  0.81385478  0.54235962  0.79281397    -0.11440
C1175       C  0.79592244  0.52507414  0.83192496     0.03230
C1176       C  0.82669037  0.50985758  0.86343762    -0.10860
H1177       H  0.91757661  0.50106481  0.79449984     0.08820
H1178       H  0.79439038  0.56405926  0.77335434     0.06350
H1179       H  0.81554181  0.50107343  0.89648911     0.06200
C1180       C  0.66962791  0.53399752  0.85161926     0.03230
C1181       C  0.65777624  0.53249408  0.80566169    -0.12920
C1182       C  0.68927366  0.51726311  0.77489998     0.00730
C1183       C  0.72842029  0.49996771  0.79280484    -0.11440
C1184       C  0.74636637  0.51722136  0.83192743     0.03230
C1185       C  0.71560915  0.53243987  0.86345011    -0.10860
H1186       H  0.62472692  0.54132910  0.79452217     0.08820
H1187       H  0.74784735  0.47822453  0.77335194     0.06350
H1188       H  0.72676444  0.54119997  0.89650632     0.06200
C1189       C  0.66952741  0.50991709  0.64848063     0.03230
C1190       C  0.65767097  0.51096276  0.69446846    -0.12920
C1191       C  0.68937659  0.52540068  0.72541237     0.00730
C1192       C  0.72868298  0.54241519  0.70770629    -0.11440
C1193       C  0.74641848  0.52543392  0.66838954     0.03230
C1194       C  0.71551224  0.51105090  0.63665820    -0.10860
H1195       H  0.62451584  0.50240655  0.70550731     0.08820
H1196       H  0.74850667  0.56337092  0.72755132     0.06350
H1197       H  0.72657143  0.50245619  0.60352343     0.06200
C1198       C  0.87276738  0.53242591  0.64846867     0.03230
C1199       C  0.88462701  0.53137637  0.69445760    -0.12920
C1200       C  0.85290236  0.51699057  0.72540513     0.00730
C1201       C  0.81357499  0.50002791  0.70770271    -0.11440
C1202       C  0.79585592  0.51702352  0.66839209     0.03230
C1203       C  0.82677793  0.53134974  0.63664942    -0.10860
H1204       H  0.91779536  0.53988626  0.70549343     0.08820
H1205       H  0.79372270  0.47911481  0.72755433     0.06350
H1206       H  0.81572747  0.53994061  0.60351103     0.06200
C1207       C  0.51081332  0.66950149  0.85153590     0.03230
C1208       C  0.51153071  0.71543780  0.86343916    -0.12920
C1209       C  0.52537676  0.74648158  0.83162897     0.00730
C1210       C  0.54234878  0.72889420  0.79225914    -0.11440
C1211       C  0.52546733  0.68957589  0.77456391     0.03230
C1212       C  0.51155542  0.65773355  0.80553208    -0.10860
H1213       H  0.50301874  0.72635365  0.89664052     0.08820
H1214       H  0.56326393  0.74874630  0.77246426     0.06350
H1215       H  0.50316455  0.62457139  0.79449009     0.06200
C1216       C  0.53134325  0.87276746  0.85153312     0.03230
C1217       C  0.53052812  0.82683678  0.86343678    -0.12920
C1218       C  0.51659872  0.79581974  0.83163685     0.00730
C1219       C  0.49965783  0.81343744  0.79225738    -0.11440
C1220       C  0.51663296  0.85271949  0.77456238     0.03230
C1221       C  0.53062159  0.88453085  0.80553063    -0.10860
H1222       H  0.53903774  0.81590481  0.89663310     0.08820
H1223       H  0.47866717  0.79363875  0.77247198     0.06350
H1224       H  0.53909224  0.91767191  0.79448751     0.06200
C1225       C  0.53305724  0.66962752  0.64835741     0.03230
C1226       C  0.53184840  0.65783710  0.69432688    -0.12920
C1227       C  0.51708264  0.68945622  0.72513216     0.00730
C1228       C  0.49983438  0.72857999  0.70724951    -0.11440
C1229       C  0.51706311  0.74641340  0.66808684     0.03230
C1230       C  0.53183682  0.71556409  0.63648250    -0.10860
H1231       H  0.54056503  0.62478446  0.70544624     0.08820
H1232       H  0.47809510  0.74799987  0.72666190     0.06350
H1233       H  0.54051965  0.72661684  0.60337398     0.06200
C1234       C  0.50915294  0.87263486  0.64834765     0.03230
C1235       C  0.51029424  0.88442613  0.69431808    -0.12920
C1236       C  0.52506610  0.85282631  0.72513939     0.00730
C1237       C  0.54238373  0.81372469  0.70727173    -0.11440
C1238       C  0.52521073  0.79586909  0.66808717     0.03230
C1239       C  0.51042515  0.82670089  0.63647424    -0.10860
H1240       H  0.50153228  0.91747083  0.70542714     0.08820
H1241       H  0.56420727  0.79437268  0.72666513     0.06350
H1242       H  0.50178037  0.81563824  0.60335835     0.06200
O1243       O  0.89458918  0.94821479  0.49500644    -0.80030
O1244       O  0.64771290  0.94821768  0.50497386    -0.81580
O1245       O  0.52513592  0.89477044  0.92699941    -0.78600
O1246       O  0.51336964  0.89460383  0.57272365    -0.76980
O1247       O  0.51338536  0.94828738  0.62650736    -0.78770
O1248       O  0.52887864  0.94844770  0.87335319    -0.79710
O1249       O  0.59380269  0.89486095  0.50898863    -0.81030
O1250       O  0.94850106  0.89485980  0.49099588    -0.81320
Eu1251     Eu  0.52115045  0.93105625  0.49999435     2.39200
O1252       O  0.56577526  0.97641433  0.54476279    -0.88830
O1253       O  0.97570700  0.97569235  0.95455889    -0.92440
C1254       C  0.90750262  0.90753431  0.49073311     1.02250
C1255       C  0.63480126  0.90753665  0.50924692     1.02070
C1256       C  0.52909266  0.90752777  0.88619834     1.02020
C1257       C  0.51121737  0.90740404  0.61364200     0.99880
H1258       H  0.58504867  0.95916716  0.93607547     0.29620
O1259       O  0.56612147  0.97676091  0.95501985    -1.01220
H1260       H  0.95570757  0.95791823  0.56325518     0.29660
O1261       O  0.97531386  0.97585691  0.54531353    -1.03760
O1262       O  0.64771566  0.59403221  0.49502033    -0.80990
O1263       O  0.89458761  0.59403515  0.50497697    -0.80520
O1264       O  0.59391699  0.52986805  0.87356547    -0.78960
O1265       O  0.59380906  0.51219531  0.62637673    -0.82300
O1266       O  0.94848296  0.53008824  0.62636566    -0.80160
O1267       O  0.94838409  0.51243380  0.87355367    -0.78800
O1268       O  0.51710229  0.64750987  0.92699893    -0.80330
O1269       O  0.52889599  0.64765500  0.57272900    -0.82250
O1270       O  0.51337939  0.59382628  0.87335535    -0.78990
O1271       O  0.52886476  0.59397221  0.62651117    -0.81670
O1272       O  0.64765552  0.52988850  0.92730118    -0.77400
O1273       O  0.89464240  0.51241515  0.92728527    -0.77430
O1274       O  0.89458949  0.52606575  0.57294045    -0.77080
O1275       O  0.64770177  0.51621765  0.57295164    -0.80570
O1276       O  0.59380706  0.64738867  0.49098802    -0.80000
O1277       O  0.94849815  0.64739088  0.50900482    -0.78330
Eu1278     Eu  0.61133706  0.52112666  0.49999818     2.39770
Eu1279     Eu  0.93096003  0.52112625  0.49998922     2.39570
Eu1280     Eu  0.52114880  0.52113994  0.90974176     2.38400
Eu1281     Eu  0.52114604  0.52112796  0.59017938     2.39880
Eu1282     Eu  0.52115045  0.61120148  0.49999326     2.39790
O1283       O  0.97652795  0.56583454  0.54475036    -0.92740
O1284       O  0.56658867  0.56659059  0.95456040    -0.91630
C1285       C  0.63480532  0.63471178  0.49073263     1.02430
C1286       C  0.90749992  0.63471449  0.50926614     1.01150
C1287       C  0.63482083  0.53218326  0.88640730     1.00540
C1288       C  0.63480156  0.51196379  0.61366992     1.02550
C1289       C  0.90749095  0.53033354  0.61365772     1.01470
C1290       C  0.90747911  0.51012671  0.88639206     1.00320
C1291       C  0.51313423  0.63474663  0.88620000     1.00370
C1292       C  0.53102608  0.63485621  0.61364862     1.02990
H1293       H  0.95723896  0.58310973  0.93607445     0.30360
O1294       O  0.97617073  0.56551815  0.95501535    -1.04900
H1295       H  0.58658026  0.58434200  0.56326481     0.32410
O1296       O  0.56697990  0.56640024  0.54531879    -1.07460
loop_ 
_geom_bond_atom_site_label_1 
_geom_bond_atom_site_label_2 
_geom_bond_distance 
_geom_bond_site_symmetry_2 
_ccdc_geom_bond_type 
C1            C2   1.430       .  A
C1            C6   1.429       .  A
C1          C120   1.479       .  S
C2          C165   1.402   1_554  A
C2            H7   1.083       .  S
C3            C4   1.396       .  A
C3          C164   1.403       .  A
C3          C176   1.510       .  S
C4            C5   1.395       .  A
C4            H8   1.054       .  S
C5          C168   1.402       .  A
C5           C30   1.510       .  S
C6          C167   1.401   1_554  A
C6            H9   1.083       .  S
C10          C11   1.429       .  A
C10          C15   1.430       .  A
C10         C152   1.479       .  S
C11         C174   1.401   1_556  A
C11          H16   1.083       .  S
C12          C13   1.395       .  A
C12         C173   1.402       .  A
C12          C21   1.510       .  S
C13         C176   1.395       .  A
C13          H17   1.054       .  S
C14          C15   1.402   1_554  A
C14         C175   1.395       .  A
C14         C165   1.510   1_554  S
C15          H18   1.083       .  S
C19         C182   1.429       .  A
C19         C186   1.430       .  A
C19         C151   1.479       .  S
C20          C21   1.402       .  A
C20         C181   1.429       .  A
C20         H187   1.083       .  S
C21          C22   1.395       .  A
C22          C23   1.395       .  A
C22          H26   1.054       .  S
C23          C24   1.403       .  A
C23          C32   1.510       .  S
C24         C181   1.430       .  A
C24          H27   1.083       .  S
H25         C182   1.083       .  S
C28          C29   1.429       .  A
C28          C33   1.430       .  A
C28         C283   1.481       .  S
C29          C30   1.402       .  A
C29          H34   1.083       .  S
C30          C31   1.396       .  A
C31          C32   1.396       .  A
C31          H35   1.054       .  S
C32          C33   1.403       .  A
C33          H36   1.083       .  S
C37          C38   1.430       .  A
C37          C42   1.429       .  A
C37         C156   1.481       .  S
C38          C39   1.402       .  A
C38          H43   1.083       .  S
C39          C40   1.395       .  A
C39          C66   1.510       .  S
C40          C41   1.395       .  A
C40          H44   1.054       .  S
C41          C42   1.402       .  A
C41          C50   1.509       .  S
C42          H45   1.083       .  S
C46          C47   1.430       .  A
C46          C51   1.429       .  A
C46         C153   1.481       .  S
C47          C48   1.402       .  A
C47          H52   1.083       .  S
C48          C49   1.395   1_545  A
C48          C57   1.510       .  S
C49          C50   1.395   1_565  A
C49          H53   1.054       .  S
C50          C51   1.402       .  A
C51          H54   1.083       .  S
C55          C56   1.429       .  A
C55          C60   1.430       .  A
C55         C154   1.482       .  S
C56          C57   1.402       .  A
C56          H61   1.083       .  S
C57          C58   1.396       .  A
C58          C59   1.396       .  A
C58          H62   1.055       .  S
C59          C60   1.403       .  A
C59          C68   1.510       .  S
C60          H63   1.083       .  S
C64          C65   1.429       .  A
C64          C69   1.430       .  A
C64         C155   1.482       .  S
C65          C66   1.402       .  A
C65          H70   1.083       .  S
C66          C67   1.396       .  A
C67          C68   1.396       .  A
C67          H71   1.055   1_545  S
C68          C69   1.403       .  A
C69          H72   1.083       .  S
C73          C74   1.430       .  A
C73          C78   1.429       .  A
C73         C157   1.481       .  S
C74          C75   1.402       .  A
C74          H79   1.083       .  S
C75          C76   1.395       .  A
C75          C84   1.510       .  S
C76          C77   1.396       .  A
C76          H80   1.054       .  S
C77          C78   1.402       .  A
C77          C93   1.509       .  S
C78          H81   1.083       .  S
C82          C83   1.430       .  A
C82          C87   1.429       .  A
C82         C122   1.481       .  S
C83          C84   1.402       .  A
C83          H88   1.083       .  S
C84          C85   1.396   1_455  A
C85          C86   1.396   1_655  A
C85          H89   1.055       .  S
C86          C87   1.402       .  A
C86         C102   1.509       .  S
C87          H90   1.083       .  S
C91          C92   1.430       .  A
C91          C96   1.430       .  A
C91         C158   1.480       .  S
C92          C93   1.402       .  A
C92          H97   1.083       .  S
C93          C94   1.395   1_455  A
C94          C95   1.395   1_655  A
C94          H98   1.053       .  S
C95          C96   1.402       .  A
C95         C104   1.510       .  S
C96          H99   1.083       .  S
C100        C101   1.430       .  A
C100        C105   1.430       .  A
C100        C123   1.480       .  S
C101        C102   1.402       .  A
C101        H106   1.083       .  S
C102        C103   1.395       .  A
C103        C104   1.395       .  A
C103        H107   1.053       .  S
C104        C105   1.402       .  A
C105        H108   1.083       .  S
O109        C120   1.292       .  A
O109       Eu469   2.460   1_554  S
O110        C121   1.292       .  A
O110       Eu468   2.460       .  S
O111        C122   1.292       .  A
O111       Eu279   2.460       .  S
O112        C123   1.292       .  A
O112       Eu117   2.460   1_554  S
O113        C123   1.292       .  A
O113       Eu471   2.460       .  S
O114        C122   1.293       .  A
O114       Eu470   2.463       .  S
O115        C121   1.292       .  A
O115       Eu117   2.458       .  S
O116        C120   1.292       .  A
O116       Eu765   2.458   1_554  S
Eu117       O273   2.460       .  S
Eu117       O764   2.458   1_456  S
Eu117       O118   2.352   1_556  S
Eu117       O775   2.354   1_456  S
Eu117       O929   2.352   1_455  S
Eu117       O287   2.354       .  S
O118       Eu471   2.359       .  S
O118       Eu468   2.359   1_554  S
O119       Eu927   2.342       .  S
O119       Eu631   2.347       .  S
O119      Eu1118   2.342       .  S
C121        C190   1.479       .  S
H124        O125   0.965       .  S
O125       Eu279   2.363       .  S
O125       Eu470   2.363       .  S
O125       Eu630   2.346       .  S
H126        O127   0.965       .  S
O127       Eu765   2.354   1_554  S
O127       Eu469   2.340   1_554  S
O127      Eu1119   2.340       .  S
O128        C151   1.292       .  A
O128       Eu144   2.460   1_554  S
O129        C152   1.292       .  A
O129       Eu145   2.460       .  S
O130        C153   1.292       .  A
O130       Eu146   2.458       .  S
O131        C154   1.292       .  A
O131       Eu147   2.460       .  S
O132        C155   1.292       .  A
O132       Eu795   2.460       .  S
O133        C156   1.292       .  A
O133       Eu794   2.458       .  S
O134        C157   1.292       .  A
O134       Eu310   2.460       .  S
O135        C158   1.292       .  A
O135       Eu148   2.460   1_554  S
O136        C157   1.293       .  A
O136       Eu146   2.463       .  S
O137        C158   1.292       .  A
O137       Eu147   2.460       .  S
O138        C153   1.292       .  A
O138       Eu306   2.458       .  S
O139        C156   1.292       .  A
O139       Eu307   2.458       .  S
O140        C155   1.292       .  A
O140       Eu145   2.459   1_554  S
O141        C154   1.292       .  A
O141       Eu144   2.459   1_554  S
O142        C151   1.292       .  A
O142       Eu148   2.458   1_554  S
O143        C152   1.292       .  A
O143       Eu796   2.458       .  S
Eu144       O434   2.460   1_545  S
Eu144       O300   2.459       .  S
Eu144       O162   2.340   1_556  S
Eu144       O442   2.359   1_546  S
Eu144       O611   2.340   1_545  S
Eu144       O312   2.359       .  S
Eu145       O433   2.460   1_546  S
Eu145       O301   2.459       .  S
Eu145       O149   2.359   1_556  S
Eu145       O605   2.359   1_545  S
Eu145       O451   2.340   1_546  S
Eu145       O322   2.340       .  S
Eu146       O438   2.463   1_545  S
Eu146       O781   2.458   1_455  S
Eu146       O150   2.342       .  S
Eu146      O1091   2.342   1_445  S
Eu146       O449   2.363   1_545  S
Eu146       O808   2.363   1_455  S
Eu147       O437   2.460   1_545  S
Eu147       O780   2.460   1_455  S
Eu147       O162   2.340       .  S
Eu147       O442   2.359   1_545  S
Eu147      O1099   2.340   1_445  S
Eu147       O797   2.359   1_455  S
Eu148       O296   2.460       .  S
Eu148       O791   2.458   1_455  S
Eu148       O162   2.354   1_556  S
Eu148       O797   2.352   1_456  S
Eu148       O970   2.354   1_455  S
Eu148       O312   2.352       .  S
O149       Eu795   2.359       .  S
O149       Eu796   2.352   1_554  S
O150       Eu306   2.347       .  S
O150       Eu310   2.342       .  S
H159        O160   0.965       .  S
O160       Eu307   2.346       .  S
O160       Eu794   2.363       .  S
O160       Eu958   2.363       .  S
H161        O162   0.965       .  S
C163        C164   1.430       .  A
C163        C168   1.429       .  A
C163        C282   1.481       .  S
C164        H169   1.083       .  S
C165        C166   1.395       .  A
C166        C167   1.395       .  A
C166        H170   1.053       .  S
C167        C192   1.509   1_556  S
C168        H171   1.083       .  S
C172        C173   1.430       .  A
C172        C177   1.430       .  A
C172        C314   1.481       .  S
C173        H178   1.083       .  S
C174        C175   1.395       .  A
C174        C183   1.509   1_554  S
C175        H179   1.054       .  S
C176        C177   1.403       .  A
C177        H180   1.083       .  S
C181        C313   1.481       .  S
C182        C183   1.401   1_554  A
C183        C184   1.395       .  A
C184        C185   1.395       .  A
C184        H188   1.053       .  S
C185        C186   1.402   1_556  A
C185        C194   1.510   1_556  S
C186        H189   1.083       .  S
C190        C191   1.429       .  A
C190        C195   1.430       .  A
C191        C192   1.401   1_556  A
C191        H196   1.083       .  S
C192        C193   1.395       .  A
C193        C194   1.395       .  A
C193        H197   1.053       .  S
C194        C195   1.402   1_554  A
C195        H198   1.083       .  S
C199        C200   1.429       .  A
C199        C204   1.430       .  A
C199        C318   1.482       .  S
C200        C201   1.402       .  A
C200        H205   1.083       .  S
C201        C202   1.396       .  A
C201        C228   1.510       .  S
C202        C203   1.396       .  A
C202        H206   1.055       .  S
C203        C204   1.403       .  A
C203        C212   1.510       .  S
C204        H207   1.083       .  S
C208        C209   1.429       .  A
C208        C213   1.430       .  A
C208        C315   1.482       .  S
C209        C210   1.402       .  A
C209        H214   1.083       .  S
C210        C211   1.396   1_545  A
C210        C219   1.510       .  S
C211        C212   1.396   1_565  A
C211        H215   1.055       .  S
C212        C213   1.403       .  A
C213        H216   1.083       .  S
C217        C218   1.430       .  A
C217        C222   1.429       .  A
C217        C316   1.481       .  S
C218        C219   1.402       .  A
C218        H223   1.083       .  S
C219        C220   1.395       .  A
C220        C221   1.395       .  A
C220        H224   1.054       .  S
C221        C222   1.402       .  A
C221        C230   1.509       .  S
C222        H225   1.083       .  S
C226        C227   1.430       .  A
C226        C231   1.429       .  A
C226        C317   1.481       .  S
C227        C228   1.402       .  A
C227        H232   1.083       .  S
C228        C229   1.395       .  A
C229        C230   1.395       .  A
C229        H233   1.054   1_545  S
C230        C231   1.402       .  A
C231        H234   1.083       .  S
C235        C236   1.430       .  A
C235        C240   1.430       .  A
C235        C319   1.480       .  S
C236        C237   1.402       .  A
C236        H241   1.083       .  S
C237        C238   1.395       .  A
C237        C246   1.510       .  S
C238        C239   1.395       .  A
C238        H242   1.053       .  S
C239        C240   1.402       .  A
C239        C255   1.509       .  S
C240        H243   1.083       .  S
C244        C245   1.430       .  A
C244        C249   1.429       .  A
C244        C284   1.480       .  S
C245        C246   1.402       .  A
C245        H250   1.083       .  S
C246        C247   1.395   1_455  A
C247        C248   1.395   1_655  A
C247        H251   1.053       .  S
C248        C249   1.402       .  A
C248        C264   1.509       .  S
C249        H252   1.083       .  S
C253        C254   1.429       .  A
C253        C258   1.430       .  A
C253        C320   1.481       .  S
C254        C255   1.402       .  A
C254        H259   1.083       .  S
C255        C256   1.396   1_455  A
C256        C257   1.395   1_655  A
C256        H260   1.054       .  S
C257        C258   1.402       .  A
C257        C266   1.510       .  S
C258        H261   1.083       .  S
C262        C263   1.429       .  A
C262        C267   1.430       .  A
C262        C285   1.481       .  S
C263        C264   1.402       .  A
C263        H268   1.083       .  S
C264        C265   1.396       .  A
C265        C266   1.396       .  A
C265        H269   1.054       .  S
C266        C267   1.402       .  A
C267        H270   1.083       .  S
O271        C282   1.292       .  A
O271       Eu631   2.459       .  S
O272        C283   1.292       .  A
O272       Eu630   2.459       .  S
O273        C284   1.292       .  A
O274        C285   1.292       .  A
O274       Eu279   2.460       .  S
O275        C285   1.293       .  A
O275       Eu633   2.463       .  S
O276        C284   1.292       .  A
O276       Eu632   2.460       .  S
O277        C283   1.292       .  A
O277       Eu279   2.458       .  S
O278        C282   1.291       .  A
O278       Eu927   2.458       .  S
Eu279       O926   2.458   1_455  S
Eu279       O937   2.363   1_455  S
Eu279       O767   2.342   1_455  S
Eu279       O280   2.342       .  S
O280       Eu633   2.342       .  S
O280       Eu630   2.347       .  S
O281       Eu765   2.352       .  S
O281       Eu469   2.359       .  S
O281      Eu1280   2.359       .  S
H286        O287   0.965       .  S
O287       Eu632   2.340       .  S
O287       Eu468   2.340       .  S
H288        O289   0.965       .  S
O289       Eu927   2.363       .  S
O289       Eu631   2.346       .  S
O289      Eu1281   2.363       .  S
O290        C313   1.292       .  A
O290       Eu306   2.459       .  S
O291        C314   1.292       .  A
O291       Eu307   2.459       .  S
O292        C315   1.292       .  A
O292       Eu308   2.460       .  S
O293        C316   1.292       .  A
O293       Eu309   2.458       .  S
O294        C317   1.292       .  A
O294       Eu957   2.458       .  S
O295        C318   1.292       .  A
O295       Eu956   2.460       .  S
O296        C319   1.292       .  A
O297        C320   1.292       .  A
O297       Eu310   2.460       .  S
O298        C319   1.292       .  A
O298       Eu308   2.460       .  S
O299        C320   1.293       .  A
O299       Eu309   2.463       .  S
O300        C315   1.292       .  A
O301        C318   1.292       .  A
O302        C317   1.292       .  A
O302       Eu307   2.458       .  S
O303        C316   1.292       .  A
O303       Eu306   2.458       .  S
O304        C313   1.292       .  A
O304       Eu310   2.458       .  S
O305        C314   1.292       .  A
O305       Eu958   2.458       .  S
Eu306       O596   2.459   1_545  S
Eu306       O604   2.347   1_545  S
Eu306       O449   2.346   1_545  S
Eu306       O324   2.346       .  S
Eu307       O595   2.459   1_545  S
Eu307       O443   2.347   1_545  S
Eu307       O613   2.346   1_545  S
Eu307       O311   2.347       .  S
Eu308       O600   2.460   1_545  S
Eu308       O943   2.460   1_455  S
Eu308      O1253   2.359   1_445  S
Eu308       O611   2.340   1_545  S
Eu308       O970   2.340   1_455  S
Eu308       O312   2.359       .  S
Eu309       O599   2.463   1_545  S
Eu309       O942   2.458   1_455  S
Eu309       O604   2.342   1_545  S
Eu309      O1261   2.363   1_445  S
Eu309       O959   2.342   1_455  S
Eu309       O324   2.363       .  S
Eu310       O953   2.458   1_455  S
Eu310       O959   2.342   1_455  S
Eu310       O808   2.363   1_455  S
Eu310       O324   2.363       .  S
O311       Eu957   2.342       .  S
O311       Eu958   2.342       .  S
H321        O322   0.965       .  S
O322       Eu956   2.340       .  S
O322       Eu796   2.354       .  S
H323        O324   0.965       .  S
C325        C326   1.430       .  A
C325        C330   1.429       .  A
C325        C444   1.479       .  S
C326        C489   1.402   1_554  A
C326        H331   1.083       .  S
C327        C488   1.403       .  A
C327        C328   1.396       .  A
C327        C500   1.510       .  S
C328        C329   1.395       .  A
C328        H332   1.054       .  S
C329        C492   1.402       .  A
C329        C354   1.510       .  S
C330        C491   1.401   1_554  A
C330        H333   1.083       .  S
C334        C335   1.429       .  A
C334        C339   1.430       .  A
C334        C476   1.479       .  S
C335        C498   1.401   1_556  A
C335        H340   1.083       .  S
C336        C497   1.402       .  A
C336        C337   1.395       .  A
C336        C345   1.510       .  S
C337        C500   1.395       .  A
C337        H341   1.054       .  S
C338        C499   1.395       .  A
C338        C339   1.402   1_554  A
C338        C489   1.510   1_554  S
C339        H342   1.083       .  S
C343        C506   1.429       .  A
C343        C510   1.430       .  A
C343        C475   1.479       .  S
C344        C505   1.429       .  A
C344        C345   1.402       .  A
C344        H511   1.083       .  S
C345        C346   1.395       .  A
C346        C347   1.395       .  A
C346        H350   1.054       .  S
C347        C348   1.403       .  A
C347        C356   1.510       .  S
C348        C505   1.430       .  A
C348        H351   1.083       .  S
H349        C506   1.083       .  S
C352        C353   1.429       .  A
C352        C357   1.430       .  A
C352        C607   1.481       .  S
C353        C354   1.402       .  A
C353        H358   1.083       .  S
C354        C355   1.396       .  A
C355        C356   1.396       .  A
C355        H359   1.054       .  S
C356        C357   1.403       .  A
C357        H360   1.083       .  S
C361        C362   1.430       .  A
C361        C366   1.429       .  A
C361        C480   1.481       .  S
C362        C363   1.402       .  A
C362        H367   1.083       .  S
C363        C364   1.395       .  A
C363        C390   1.510       .  S
C364        C365   1.395       .  A
C364        H368   1.054       .  S
C365        C366   1.402       .  A
C365        C374   1.509       .  S
C366        H369   1.083       .  S
C370        C371   1.430       .  A
C370        C375   1.429       .  A
C370        C477   1.481       .  S
C371        C372   1.402       .  A
C371        H376   1.083       .  S
C372        C373   1.395       .  A
C372        C381   1.510       .  S
C373        C374   1.395       .  A
C373        H377   1.054       .  S
C374        C375   1.402       .  A
C375        H378   1.083       .  S
C379        C380   1.429       .  A
C379        C384   1.430       .  A
C379        C478   1.482       .  S
C380        C381   1.402       .  A
C380        H385   1.083       .  S
C381        C382   1.396       .  A
C382        C383   1.396       .  A
C382        H386   1.055       .  S
C383        C384   1.403       .  A
C383        C392   1.510       .  S
C384        H387   1.083       .  S
C388        C389   1.429       .  A
C388        C393   1.430       .  A
C388        C479   1.482       .  S
C389        C390   1.402       .  A
C389        H394   1.083       .  S
C390        C391   1.396       .  A
C391        C392   1.396       .  A
C391        H395   1.055       .  S
C392        C393   1.403       .  A
C393        H396   1.083       .  S
C397        C398   1.430       .  A
C397        C402   1.429       .  A
C397        C481   1.481       .  S
C398        C399   1.402       .  A
C398        H403   1.083       .  S
C399        C400   1.395       .  A
C399        C408   1.510       .  S
C400        C401   1.396       .  A
C400        H404   1.054       .  S
C401        C402   1.402       .  A
C401        C417   1.509       .  S
C402        H405   1.083       .  S
C406        C407   1.430       .  A
C406        C411   1.429       .  A
C406        C446   1.481       .  S
C407        C408   1.402       .  A
C407        H412   1.083       .  S
C408        C409   1.396   1_455  A
C409        C410   1.396   1_655  A
C409        H413   1.055       .  S
C410        C411   1.402       .  A
C410        C426   1.509       .  S
C411        H414   1.083       .  S
C415        C416   1.430       .  A
C415        C420   1.430       .  A
C415        C482   1.480       .  S
C416        C417   1.402       .  A
C416        H421   1.083       .  S
C417        C418   1.395   1_455  A
C418        C419   1.395   1_655  A
C418        H422   1.053       .  S
C419        C420   1.402       .  A
C419        C428   1.510       .  S
C420        H423   1.083       .  S
C424        C425   1.430       .  A
C424        C429   1.430       .  A
C424        C447   1.480       .  S
C425        C426   1.402       .  A
C425        H430   1.083       .  S
C426        C427   1.395       .  A
C427        C428   1.395       .  A
C427        H431   1.053       .  S
C428        C429   1.402       .  A
C429        H432   1.083       .  S
O433        C444   1.292       .  A
O434        C445   1.292       .  A
O435        C446   1.292       .  A
O435       Eu603   2.460       .  S
O436        C447   1.292       .  A
O436       Eu441   2.460   1_554  S
O437        C447   1.292       .  A
O438        C446   1.293       .  A
O439        C445   1.292       .  A
O439       Eu441   2.458       .  S
O440        C444   1.292       .  A
O440      Eu1089   2.458   1_554  S
Eu441       O597   2.460       .  S
Eu441      O1088   2.458   1_456  S
Eu441      O1099   2.354   1_456  S
Eu441      O1253   2.352   1_455  S
Eu441       O442   2.352   1_556  S
Eu441       O611   2.354       .  S
O443      Eu1251   2.342       .  S
O443       Eu794   2.342   1_565  S
C445        C514   1.479       .  S
H448        O449   0.965       .  S
O449       Eu603   2.363       .  S
H450        O451   0.965       .  S
O451      Eu1089   2.354   1_554  S
O451       Eu795   2.340   1_565  S
O452        C475   1.292       .  A
O452       Eu468   2.460   1_554  S
O453        C476   1.292       .  A
O453       Eu469   2.460       .  S
O454        C477   1.292       .  A
O454       Eu470   2.458       .  S
O455        C478   1.292       .  A
O455       Eu471   2.460       .  S
O456        C479   1.292       .  A
O456      Eu1119   2.460       .  S
O457        C480   1.292       .  A
O457      Eu1118   2.458       .  S
O458        C481   1.292       .  A
O458       Eu634   2.460       .  S
O459        C482   1.292       .  A
O459       Eu472   2.460   1_554  S
O460        C481   1.293       .  A
O460       Eu470   2.463       .  S
O461        C482   1.292       .  A
O461       Eu471   2.460       .  S
O462        C477   1.292       .  A
O462       Eu630   2.458       .  S
O463        C480   1.292       .  A
O463       Eu631   2.458       .  S
O464        C479   1.292       .  A
O464       Eu469   2.459   1_554  S
O465        C478   1.292       .  A
O465       Eu468   2.459   1_554  S
O466        C475   1.292       .  A
O466       Eu472   2.458   1_554  S
O467        C476   1.292       .  A
O467      Eu1120   2.458       .  S
Eu468       O624   2.459       .  S
Eu468       O486   2.340   1_556  S
Eu468       O636   2.359       .  S
Eu469       O625   2.459       .  S
Eu469       O473   2.359   1_556  S
Eu469       O646   2.340       .  S
Eu470      O1105   2.458   1_455  S
Eu470       O767   2.342   1_455  S
Eu470      O1132   2.363   1_455  S
Eu470       O474   2.342       .  S
Eu471      O1104   2.460   1_455  S
Eu471       O775   2.340   1_455  S
Eu471      O1121   2.359   1_455  S
Eu471       O486   2.340       .  S
Eu472       O620   2.460       .  S
Eu472      O1115   2.458   1_455  S
Eu472      O1121   2.352   1_456  S
Eu472      O1294   2.354   1_455  S
Eu472       O486   2.354   1_556  S
Eu472       O636   2.352       .  S
O473      Eu1119   2.359       .  S
O473      Eu1120   2.352   1_554  S
O474       Eu630   2.347       .  S
O474       Eu634   2.342       .  S
H483        O484   0.965       .  S
O484       Eu631   2.346       .  S
O484      Eu1118   2.363       .  S
O484      Eu1282   2.363       .  S
H485        O486   0.965       .  S
C487        C488   1.430       .  A
C487        C492   1.429       .  A
C487        C606   1.481       .  S
C488        H493   1.083       .  S
C489        C490   1.395       .  A
C490        C491   1.395       .  A
C490        H494   1.053       .  S
C491        C516   1.509   1_556  S
C492        H495   1.083       .  S
C496        C497   1.430       .  A
C496        C501   1.430       .  A
C496        C638   1.481       .  S
C497        H502   1.083       .  S
C498        C499   1.395       .  A
C498        C507   1.509   1_554  S
C499        H503   1.054       .  S
C500        C501   1.403       .  A
C501        H504   1.083       .  S
C505        C637   1.481       .  S
C506        C507   1.401   1_554  A
C507        C508   1.395       .  A
C508        C509   1.395       .  A
C508        H512   1.053       .  S
C509        C510   1.402   1_556  A
C509        C518   1.510   1_556  S
C510        H513   1.083       .  S
C514        C515   1.429       .  A
C514        C519   1.430       .  A
C515        C516   1.401   1_556  A
C515        H520   1.083       .  S
C516        C517   1.395       .  A
C517        C518   1.395       .  A
C517        H521   1.053       .  S
C518        C519   1.402   1_554  A
C519        H522   1.083       .  S
C523        C524   1.429       .  A
C523        C528   1.430       .  A
C523        C642   1.482       .  S
C524        C525   1.402       .  A
C524        H529   1.083       .  S
C525        C526   1.396       .  A
C525        C552   1.510       .  S
C526        C527   1.396       .  A
C526        H530   1.055       .  S
C527        C528   1.403       .  A
C527        C536   1.510       .  S
C528        H531   1.083       .  S
C532        C533   1.429       .  A
C532        C537   1.430       .  A
C532        C639   1.482       .  S
C533        C534   1.402       .  A
C533        H538   1.083       .  S
C534        C535   1.396       .  A
C534        C543   1.510       .  S
C535        C536   1.396       .  A
C535        H539   1.055       .  S
C536        C537   1.403       .  A
C537        H540   1.083       .  S
C541        C542   1.430       .  A
C541        C546   1.429       .  A
C541        C640   1.481       .  S
C542        C543   1.402       .  A
C542        H547   1.083       .  S
C543        C544   1.395       .  A
C544        C545   1.395       .  A
C544        H548   1.054       .  S
C545        C546   1.402       .  A
C545        C554   1.509       .  S
C546        H549   1.083       .  S
C550        C551   1.430       .  A
C550        C555   1.429       .  A
C550        C641   1.481       .  S
C551        C552   1.402       .  A
C551        H556   1.083       .  S
C552        C553   1.395       .  A
C553        C554   1.395       .  A
C553        H557   1.054       .  S
C554        C555   1.402       .  A
C555        H558   1.083       .  S
C559        C560   1.430       .  A
C559        C564   1.430       .  A
C559        C643   1.480       .  S
C560        C561   1.402       .  A
C560        H565   1.083       .  S
C561        C562   1.395       .  A
C561        C570   1.510       .  S
C562        C563   1.395       .  A
C562        H566   1.053       .  S
C563        C564   1.402       .  A
C563        C579   1.509       .  S
C564        H567   1.083       .  S
C568        C569   1.430       .  A
C568        C573   1.429       .  A
C568        C608   1.480       .  S
C569        C570   1.402       .  A
C569        H574   1.083       .  S
C570        C571   1.395   1_455  A
C571        C572   1.395   1_655  A
C571        H575   1.053       .  S
C572        C573   1.402       .  A
C572        C588   1.509       .  S
C573        H576   1.083       .  S
C577        C578   1.429       .  A
C577        C582   1.430       .  A
C577        C644   1.481       .  S
C578        C579   1.402       .  A
C578        H583   1.083       .  S
C579        C580   1.396   1_455  A
C580        C581   1.395   1_655  A
C580        H584   1.054       .  S
C581        C582   1.402       .  A
C581        C590   1.510       .  S
C582        H585   1.083       .  S
C586        C587   1.429       .  A
C586        C591   1.430       .  A
C586        C609   1.481       .  S
C587        C588   1.402       .  A
C587        H592   1.083       .  S
C588        C589   1.396       .  A
C589        C590   1.396       .  A
C589        H593   1.054       .  S
C590        C591   1.402       .  A
C591        H594   1.083       .  S
O595        C606   1.292       .  A
O596        C607   1.292       .  A
O597        C608   1.292       .  A
O598        C609   1.292       .  A
O598       Eu603   2.460       .  S
O599        C609   1.293       .  A
O600        C608   1.292       .  A
O601        C607   1.292       .  A
O601       Eu603   2.458       .  S
O602        C606   1.292       .  A
O602      Eu1251   2.458       .  S
Eu603      O1250   2.458   1_455  S
Eu603      O1261   2.363   1_455  S
Eu603      O1091   2.342   1_455  S
Eu603       O604   2.342       .  S
O605      Eu1089   2.352       .  S
O605       Eu956   2.359   1_565  S
H610        O611   0.965       .  S
H612        O613   0.965       .  S
O613      Eu1251   2.363       .  S
O613       Eu957   2.363   1_565  S
O614        C637   1.292       .  A
O614       Eu630   2.459       .  S
O615        C638   1.292       .  A
O615       Eu631   2.459       .  S
O616        C639   1.292       .  A
O616       Eu632   2.460       .  S
O617        C640   1.292       .  A
O617       Eu633   2.458       .  S
O618        C641   1.292       .  A
O618      Eu1281   2.458       .  S
O619        C642   1.292       .  A
O619      Eu1280   2.460       .  S
O620        C643   1.292       .  A
O621        C644   1.292       .  A
O621       Eu634   2.460       .  S
O622        C643   1.292       .  A
O622       Eu632   2.460       .  S
O623        C644   1.293       .  A
O623       Eu633   2.463       .  S
O624        C639   1.292       .  A
O625        C642   1.292       .  A
O626        C641   1.292       .  A
O626       Eu631   2.458       .  S
O627        C640   1.292       .  A
O627       Eu630   2.458       .  S
O628        C637   1.292       .  A
O628       Eu634   2.458       .  S
O629        C638   1.292       .  A
O629      Eu1282   2.458       .  S
Eu630       O648   2.346       .  S
Eu631       O635   2.347       .  S
Eu632      O1267   2.460   1_455  S
Eu632       O929   2.359   1_455  S
Eu632      O1294   2.340   1_455  S
Eu632       O636   2.359       .  S
Eu633      O1266   2.458   1_455  S
Eu633       O937   2.363   1_455  S
Eu633      O1283   2.342   1_455  S
Eu633       O648   2.363       .  S
Eu634      O1277   2.458   1_455  S
Eu634      O1283   2.342   1_455  S
Eu634      O1132   2.363   1_455  S
Eu634       O648   2.363       .  S
O635      Eu1281   2.342       .  S
O635      Eu1282   2.342       .  S
H645        O646   0.965       .  S
O646      Eu1280   2.340       .  S
O646      Eu1120   2.354       .  S
H647        O648   0.965       .  S
C649        C650   1.430       .  A
C649        C654   1.429       .  A
C649        C768   1.479       .  S
C650        C813   1.402   1_554  A
C650        H655   1.083       .  S
C651        C812   1.403       .  A
C651        C652   1.396       .  A
C651        C824   1.510       .  S
C652        C653   1.395       .  A
C652        H656   1.054       .  S
C653        C816   1.402       .  A
C653        C678   1.510       .  S
C654        C815   1.401   1_554  A
C654        H657   1.083       .  S
C658        C659   1.429       .  A
C658        C663   1.430       .  A
C658        C800   1.479       .  S
C659        C822   1.401   1_556  A
C659        H664   1.083       .  S
C660        C821   1.402       .  A
C660        C661   1.395       .  A
C660        C669   1.510       .  S
C661        C824   1.395       .  A
C661        H665   1.054       .  S
C662        C823   1.395       .  A
C662        C663   1.402   1_554  A
C662        C813   1.510   1_554  S
C663        H666   1.083       .  S
C667        C830   1.429       .  A
C667        C834   1.430       .  A
C667        C799   1.479       .  S
C668        C829   1.429       .  A
C668        C669   1.402       .  A
C668        H835   1.083       .  S
C669        C670   1.395       .  A
C670        C671   1.395       .  A
C670        H674   1.054       .  S
C671        C672   1.403       .  A
C671        C680   1.510       .  S
C672        C829   1.430       .  A
C672        H675   1.083       .  S
H673        C830   1.083       .  S
C676        C677   1.429       .  A
C676        C681   1.430       .  A
C676        C931   1.481       .  S
C677        C678   1.402       .  A
C677        H682   1.083       .  S
C678        C679   1.396       .  A
C679        C680   1.396       .  A
C679        H683   1.054       .  S
C680        C681   1.403       .  A
C681        H684   1.083       .  S
C685        C686   1.430       .  A
C685        C690   1.429       .  A
C685        C804   1.481       .  S
C686        C687   1.402       .  A
C686        H691   1.083       .  S
C687        C688   1.395       .  A
C687        C714   1.510       .  S
C688        C689   1.395       .  A
C688        H692   1.054       .  S
C689        C690   1.402       .  A
C689        C698   1.509       .  S
C690        H693   1.083       .  S
C694        C695   1.430       .  A
C694        C699   1.429       .  A
C694        C801   1.481       .  S
C695        C696   1.402       .  A
C695        H700   1.083       .  S
C696        C697   1.395   1_545  A
C696        C705   1.510       .  S
C697        C698   1.395   1_565  A
C697        H701   1.054       .  S
C698        C699   1.402       .  A
C699        H702   1.083       .  S
C703        C704   1.429       .  A
C703        C708   1.430       .  A
C703        C802   1.482       .  S
C704        C705   1.402       .  A
C704        H709   1.083       .  S
C705        C706   1.396       .  A
C706        C707   1.396       .  A
C706        H710   1.055       .  S
C707        C708   1.403       .  A
C707        C716   1.510       .  S
C708        H711   1.083       .  S
C712        C713   1.429       .  A
C712        C717   1.430       .  A
C712        C803   1.482       .  S
C713        C714   1.402       .  A
C713        H718   1.083       .  S
C714        C715   1.396       .  A
C715        C716   1.396       .  A
C715        H719   1.055   1_545  S
C716        C717   1.403       .  A
C717        H720   1.083       .  S
C721        C722   1.430       .  A
C721        C726   1.429       .  A
C721        C805   1.481       .  S
C722        C723   1.402       .  A
C722        H727   1.083       .  S
C723        C724   1.395       .  A
C723        C732   1.510       .  S
C724        C725   1.396       .  A
C724        H728   1.054       .  S
C725        C726   1.402       .  A
C725        C741   1.509       .  S
C726        H729   1.083       .  S
C730        C731   1.430       .  A
C730        C735   1.429       .  A
C730        C770   1.481       .  S
C731        C732   1.402       .  A
C731        H736   1.083       .  S
C732        C733   1.396       .  A
C733        C734   1.396       .  A
C733        H737   1.055       .  S
C734        C735   1.402       .  A
C734        C750   1.509       .  S
C735        H738   1.083       .  S
C739        C740   1.430       .  A
C739        C744   1.430       .  A
C739        C806   1.480       .  S
C740        C741   1.402       .  A
C740        H745   1.083       .  S
C741        C742   1.395       .  A
C742        C743   1.395       .  A
C742        H746   1.053       .  S
C743        C744   1.402       .  A
C743        C752   1.510       .  S
C744        H747   1.083       .  S
C748        C749   1.430       .  A
C748        C753   1.430       .  A
C748        C771   1.480       .  S
C749        C750   1.402       .  A
C749        H754   1.083       .  S
C750        C751   1.395       .  A
C751        C752   1.395       .  A
C751        H755   1.053       .  S
C752        C753   1.402       .  A
C753        H756   1.083       .  S
O757        C768   1.292       .  A
O757      Eu1117   2.460   1_554  S
O758        C769   1.292       .  A
O758      Eu1116   2.460       .  S
O759        C770   1.292       .  A
O759       Eu927   2.460       .  S
O760        C771   1.292       .  A
O760       Eu765   2.460   1_554  S
O761        C771   1.292       .  A
O761      Eu1119   2.460       .  S
O762        C770   1.293       .  A
O762      Eu1118   2.463       .  S
O763        C769   1.292       .  A
O763       Eu765   2.458       .  S
O764        C768   1.292       .  A
Eu765       O921   2.460       .  S
Eu765       O766   2.352   1_556  S
Eu765       O935   2.354       .  S
O766      Eu1119   2.359       .  S
O766      Eu1116   2.359   1_554  S
O767      Eu1279   2.347       .  S
C769        C838   1.479       .  S
H772        O773   0.965       .  S
O773       Eu927   2.363       .  S
O773      Eu1118   2.363       .  S
O773      Eu1278   2.346       .  S
H774        O775   0.965       .  S
O775      Eu1117   2.340   1_554  S
O776        C799   1.292       .  A
O776       Eu792   2.460   1_554  S
O777        C800   1.292       .  A
O777       Eu793   2.460       .  S
O778        C801   1.292       .  A
O778       Eu794   2.458       .  S
O779        C802   1.292       .  A
O779       Eu795   2.460       .  S
O780        C803   1.292       .  A
O781        C804   1.292       .  A
O782        C805   1.292       .  A
O782       Eu958   2.460       .  S
O783        C806   1.292       .  A
O783       Eu796   2.460   1_554  S
O784        C805   1.293       .  A
O784       Eu794   2.463       .  S
O785        C806   1.292       .  A
O785       Eu795   2.460       .  S
O786        C801   1.292       .  A
O786       Eu954   2.458       .  S
O787        C804   1.292       .  A
O787       Eu955   2.458       .  S
O788        C803   1.292       .  A
O788       Eu793   2.459   1_554  S
O789        C802   1.292       .  A
O789       Eu792   2.459   1_554  S
O790        C799   1.292       .  A
O790       Eu796   2.458   1_554  S
O791        C800   1.292       .  A
Eu792      O1082   2.460   1_545  S
Eu792       O948   2.459       .  S
Eu792      O1090   2.359   1_546  S
Eu792      O1259   2.340   1_545  S
Eu792       O810   2.340   1_556  S
Eu792       O960   2.359       .  S
Eu793      O1081   2.460   1_546  S
Eu793       O949   2.459       .  S
Eu793      O1253   2.359   1_545  S
Eu793      O1099   2.340   1_546  S
Eu793       O797   2.359   1_556  S
Eu793       O970   2.340       .  S
Eu794      O1086   2.463   1_545  S
Eu794      O1097   2.363   1_545  S
Eu794       O798   2.342       .  S
Eu795      O1085   2.460   1_545  S
Eu795      O1090   2.359   1_545  S
Eu795       O810   2.340       .  S
Eu796       O944   2.460       .  S
Eu796       O810   2.354   1_556  S
Eu796       O960   2.352       .  S
O798       Eu954   2.347       .  S
O798       Eu958   2.342       .  S
H807        O808   0.965       .  S
O808       Eu955   2.346       .  S
H809        O810   0.965       .  S
C811        C812   1.430       .  A
C811        C816   1.429       .  A
C811        C930   1.481       .  S
C812        H817   1.083       .  S
C813        C814   1.395       .  A
C814        C815   1.395       .  A
C814        H818   1.053       .  S
C815        C840   1.509   1_556  S
C816        H819   1.083       .  S
C820        C821   1.430       .  A
C820        C825   1.430       .  A
C820        C962   1.481       .  S
C821        H826   1.083       .  S
C822        C823   1.395       .  A
C822        C831   1.509   1_554  S
C823        H827   1.054       .  S
C824        C825   1.403       .  A
C825        H828   1.083       .  S
C829        C961   1.481       .  S
C830        C831   1.401   1_554  A
C831        C832   1.395       .  A
C832        C833   1.395       .  A
C832        H836   1.053       .  S
C833        C834   1.402   1_556  A
C833        C842   1.510   1_556  S
C834        H837   1.083       .  S
C838        C839   1.429       .  A
C838        C843   1.430       .  A
C839        C840   1.401   1_556  A
C839        H844   1.083       .  S
C840        C841   1.395       .  A
C841        C842   1.395       .  A
C841        H845   1.053       .  S
C842        C843   1.402   1_554  A
C843        H846   1.083       .  S
C847        C848   1.429       .  A
C847        C852   1.430       .  A
C847        C966   1.482       .  S
C848        C849   1.402       .  A
C848        H853   1.083       .  S
C849        C850   1.396       .  A
C849        C876   1.510       .  S
C850        C851   1.396       .  A
C850        H854   1.055       .  S
C851        C852   1.403       .  A
C851        C860   1.510       .  S
C852        H855   1.083       .  S
C856        C857   1.429       .  A
C856        C861   1.430       .  A
C856        C963   1.482       .  S
C857        C858   1.402       .  A
C857        H862   1.083       .  S
C858        C859   1.396   1_545  A
C858        C867   1.510       .  S
C859        C860   1.396   1_565  A
C859        H863   1.055       .  S
C860        C861   1.403       .  A
C861        H864   1.083       .  S
C865        C866   1.430       .  A
C865        C870   1.429       .  A
C865        C964   1.481       .  S
C866        C867   1.402       .  A
C866        H871   1.083       .  S
C867        C868   1.395       .  A
C868        C869   1.395       .  A
C868        H872   1.054       .  S
C869        C870   1.402       .  A
C869        C878   1.509       .  S
C870        H873   1.083       .  S
C874        C875   1.430       .  A
C874        C879   1.429       .  A
C874        C965   1.481       .  S
C875        C876   1.402       .  A
C875        H880   1.083       .  S
C876        C877   1.395       .  A
C877        C878   1.395       .  A
C877        H881   1.054   1_545  S
C878        C879   1.402       .  A
C879        H882   1.083       .  S
C883        C884   1.430       .  A
C883        C888   1.430       .  A
C883        C967   1.480       .  S
C884        C885   1.402       .  A
C884        H889   1.083       .  S
C885        C886   1.395       .  A
C885        C894   1.510       .  S
C886        C887   1.395       .  A
C886        H890   1.053       .  S
C887        C888   1.402       .  A
C887        C903   1.509       .  S
C888        H891   1.083       .  S
C892        C893   1.430       .  A
C892        C897   1.429       .  A
C892        C932   1.480       .  S
C893        C894   1.402       .  A
C893        H898   1.083       .  S
C894        C895   1.395       .  A
C895        C896   1.395       .  A
C895        H899   1.053       .  S
C896        C897   1.402       .  A
C896        C912   1.509       .  S
C897        H900   1.083       .  S
C901        C902   1.429       .  A
C901        C906   1.430       .  A
C901        C968   1.481       .  S
C902        C903   1.402       .  A
C902        H907   1.083       .  S
C903        C904   1.396       .  A
C904        C905   1.395       .  A
C904        H908   1.054       .  S
C905        C906   1.402       .  A
C905        C914   1.510       .  S
C906        H909   1.083       .  S
C910        C911   1.429       .  A
C910        C915   1.430       .  A
C910        C933   1.481       .  S
C911        C912   1.402       .  A
C911        H916   1.083       .  S
C912        C913   1.396       .  A
C913        C914   1.396       .  A
C913        H917   1.054       .  S
C914        C915   1.402       .  A
C915        H918   1.083       .  S
O919        C930   1.292       .  A
O919      Eu1279   2.459       .  S
O920        C931   1.292       .  A
O920      Eu1278   2.459       .  S
O921        C932   1.292       .  A
O922        C933   1.292       .  A
O922       Eu927   2.460       .  S
O923        C933   1.293       .  A
O923      Eu1281   2.463       .  S
O924        C932   1.292       .  A
O924      Eu1280   2.460       .  S
O925        C931   1.292       .  A
O925       Eu927   2.458       .  S
O926        C930   1.292       .  A
Eu927       O928   2.342       .  S
O928      Eu1281   2.342       .  S
O928      Eu1278   2.347       .  S
O929      Eu1117   2.359       .  S
H934        O935   0.965       .  S
O935      Eu1280   2.340       .  S
O935      Eu1116   2.340       .  S
H936        O937   0.965       .  S
O937      Eu1279   2.346       .  S
O938        C961   1.292       .  A
O938       Eu954   2.459       .  S
O939        C962   1.292       .  A
O939       Eu955   2.459       .  S
O940        C963   1.292       .  A
O940       Eu956   2.460       .  S
O941        C964   1.292       .  A
O941       Eu957   2.458       .  S
O942        C965   1.292       .  A
O943        C966   1.292       .  A
O944        C967   1.292       .  A
O945        C968   1.292       .  A
O945       Eu958   2.460       .  S
O946        C967   1.292       .  A
O946       Eu956   2.460       .  S
O947        C968   1.293       .  A
O947       Eu957   2.463       .  S
O948        C963   1.292       .  A
O949        C966   1.292       .  A
O950        C965   1.292       .  A
O950       Eu955   2.458       .  S
O951        C964   1.292       .  A
O951       Eu954   2.458       .  S
O952        C961   1.292       .  A
O952       Eu958   2.458       .  S
O953        C962   1.292       .  A
Eu954      O1244   2.459   1_545  S
Eu954      O1252   2.347   1_545  S
Eu954      O1097   2.346   1_545  S
Eu954       O972   2.346       .  S
Eu955      O1243   2.459   1_545  S
Eu955      O1091   2.347   1_545  S
Eu955      O1261   2.346   1_545  S
Eu955       O959   2.347       .  S
Eu956      O1248   2.460   1_545  S
Eu956      O1259   2.340   1_545  S
Eu956       O960   2.359       .  S
Eu957      O1247   2.463   1_545  S
Eu957      O1252   2.342   1_545  S
Eu957       O972   2.363       .  S
Eu958       O972   2.363       .  S
H969        O970   0.965       .  S
H971        O972   0.965       .  S
C973        C974   1.430       .  A
C973        C978   1.429       .  A
C973       C1092   1.479       .  S
C974       C1137   1.402   1_554  A
C974        H979   1.083       .  S
C975       C1136   1.403       .  A
C975        C976   1.396       .  A
C975       C1148   1.510       .  S
C976        C977   1.395       .  A
C976        H980   1.054       .  S
C977       C1140   1.402       .  A
C977       C1002   1.510       .  S
C978       C1139   1.401   1_554  A
C978        H981   1.083       .  S
C982        C983   1.429       .  A
C982        C987   1.430       .  A
C982       C1124   1.479       .  S
C983       C1146   1.401   1_556  A
C983        H988   1.083       .  S
C984       C1145   1.402       .  A
C984        C985   1.395       .  A
C984        C993   1.510       .  S
C985       C1148   1.395       .  A
C985        H989   1.054       .  S
C986       C1147   1.395       .  A
C986        C987   1.402   1_554  A
C986       C1137   1.510   1_554  S
C987        H990   1.083       .  S
C991       C1154   1.429       .  A
C991       C1158   1.430       .  A
C991       C1123   1.479       .  S
C992       C1153   1.429       .  A
C992        C993   1.402       .  A
C992       H1159   1.083       .  S
C993        C994   1.395       .  A
C994        C995   1.395       .  A
C994        H998   1.054       .  S
C995        C996   1.403       .  A
C995       C1004   1.510       .  S
C996       C1153   1.430       .  A
C996        H999   1.083       .  S
H997       C1154   1.083       .  S
C1000      C1001   1.429       .  A
C1000      C1005   1.430       .  A
C1000      C1255   1.481       .  S
C1001      C1002   1.402       .  A
C1001      H1006   1.083       .  S
C1002      C1003   1.396       .  A
C1003      C1004   1.396       .  A
C1003      H1007   1.054       .  S
C1004      C1005   1.403       .  A
C1005      H1008   1.083       .  S
C1009      C1010   1.430       .  A
C1009      C1014   1.429       .  A
C1009      C1128   1.481       .  S
C1010      C1011   1.402       .  A
C1010      H1015   1.083       .  S
C1011      C1012   1.395       .  A
C1011      C1038   1.510       .  S
C1012      C1013   1.395       .  A
C1012      H1016   1.054       .  S
C1013      C1014   1.402       .  A
C1013      C1022   1.509       .  S
C1014      H1017   1.083       .  S
C1018      C1019   1.430       .  A
C1018      C1023   1.429       .  A
C1018      C1125   1.481       .  S
C1019      C1020   1.402       .  A
C1019      H1024   1.083       .  S
C1020      C1021   1.395       .  A
C1020      C1029   1.510       .  S
C1021      C1022   1.395       .  A
C1021      H1025   1.054       .  S
C1022      C1023   1.402       .  A
C1023      H1026   1.083       .  S
C1027      C1028   1.429       .  A
C1027      C1032   1.430       .  A
C1027      C1126   1.482       .  S
C1028      C1029   1.402       .  A
C1028      H1033   1.083       .  S
C1029      C1030   1.396       .  A
C1030      C1031   1.396       .  A
C1030      H1034   1.055       .  S
C1031      C1032   1.403       .  A
C1031      C1040   1.510       .  S
C1032      H1035   1.083       .  S
C1036      C1037   1.429       .  A
C1036      C1041   1.430       .  A
C1036      C1127   1.482       .  S
C1037      C1038   1.402       .  A
C1037      H1042   1.083       .  S
C1038      C1039   1.396       .  A
C1039      C1040   1.396       .  A
C1039      H1043   1.055       .  S
C1040      C1041   1.403       .  A
C1041      H1044   1.083       .  S
C1045      C1046   1.430       .  A
C1045      C1050   1.429       .  A
C1045      C1129   1.481       .  S
C1046      C1047   1.402       .  A
C1046      H1051   1.083       .  S
C1047      C1048   1.395       .  A
C1047      C1056   1.510       .  S
C1048      C1049   1.396       .  A
C1048      H1052   1.054       .  S
C1049      C1050   1.402       .  A
C1049      C1065   1.509       .  S
C1050      H1053   1.083       .  S
C1054      C1055   1.430       .  A
C1054      C1059   1.429       .  A
C1054      C1094   1.481       .  S
C1055      C1056   1.402       .  A
C1055      H1060   1.083       .  S
C1056      C1057   1.396       .  A
C1057      C1058   1.396       .  A
C1057      H1061   1.055       .  S
C1058      C1059   1.402       .  A
C1058      C1074   1.509       .  S
C1059      H1062   1.083       .  S
C1063      C1064   1.430       .  A
C1063      C1068   1.430       .  A
C1063      C1130   1.480       .  S
C1064      C1065   1.402       .  A
C1064      H1069   1.083       .  S
C1065      C1066   1.395       .  A
C1066      C1067   1.395       .  A
C1066      H1070   1.053       .  S
C1067      C1068   1.402       .  A
C1067      C1076   1.510       .  S
C1068      H1071   1.083       .  S
C1072      C1073   1.430       .  A
C1072      C1077   1.430       .  A
C1072      C1095   1.480       .  S
C1073      C1074   1.402       .  A
C1073      H1078   1.083       .  S
C1074      C1075   1.395       .  A
C1075      C1076   1.395       .  A
C1075      H1079   1.053       .  S
C1076      C1077   1.402       .  A
C1077      H1080   1.083       .  S
O1081      C1092   1.292       .  A
O1082      C1093   1.292       .  A
O1083      C1094   1.292       .  A
O1083     Eu1251   2.460       .  S
O1084      C1095   1.292       .  A
O1084     Eu1089   2.460   1_554  S
O1085      C1095   1.292       .  A
O1086      C1094   1.293       .  A
O1087      C1093   1.292       .  A
O1087     Eu1089   2.458       .  S
O1088      C1092   1.292       .  A
Eu1089     O1245   2.460       .  S
Eu1089     O1090   2.352   1_556  S
Eu1089     O1259   2.354       .  S
C1093      C1162   1.479       .  S
H1096      O1097   0.965       .  S
O1097     Eu1251   2.363       .  S
H1098      O1099   0.965       .  S
O1100      C1123   1.292       .  A
O1100     Eu1116   2.460   1_554  S
O1101      C1124   1.292       .  A
O1101     Eu1117   2.460       .  S
O1102      C1125   1.292       .  A
O1102     Eu1118   2.458       .  S
O1103      C1126   1.292       .  A
O1103     Eu1119   2.460       .  S
O1104      C1127   1.292       .  A
O1105      C1128   1.292       .  A
O1106      C1129   1.292       .  A
O1106     Eu1282   2.460       .  S
O1107      C1130   1.292       .  A
O1107     Eu1120   2.460   1_554  S
O1108      C1129   1.293       .  A
O1108     Eu1118   2.463       .  S
O1109      C1130   1.292       .  A
O1109     Eu1119   2.460       .  S
O1110      C1125   1.292       .  A
O1110     Eu1278   2.458       .  S
O1111      C1128   1.292       .  A
O1111     Eu1279   2.458       .  S
O1112      C1127   1.292       .  A
O1112     Eu1117   2.459   1_554  S
O1113      C1126   1.292       .  A
O1113     Eu1116   2.459   1_554  S
O1114      C1123   1.292       .  A
O1114     Eu1120   2.458   1_554  S
O1115      C1124   1.292       .  A
Eu1116     O1272   2.459       .  S
Eu1116     O1134   2.340   1_556  S
Eu1116     O1284   2.359       .  S
Eu1117     O1273   2.459       .  S
Eu1117     O1121   2.359   1_556  S
Eu1117     O1294   2.340       .  S
Eu1118     O1122   2.342       .  S
Eu1119     O1134   2.340       .  S
Eu1120     O1268   2.460       .  S
Eu1120     O1134   2.354   1_556  S
Eu1120     O1284   2.352       .  S
O1122     Eu1278   2.347       .  S
O1122     Eu1282   2.342       .  S
H1131      O1132   0.965       .  S
O1132     Eu1279   2.346       .  S
H1133      O1134   0.965       .  S
C1135      C1136   1.430       .  A
C1135      C1140   1.429       .  A
C1135      C1254   1.481       .  S
C1136      H1141   1.083       .  S
C1137      C1138   1.395       .  A
C1138      C1139   1.395       .  A
C1138      H1142   1.053       .  S
C1139      C1164   1.509   1_556  S
C1140      H1143   1.083       .  S
C1144      C1145   1.430       .  A
C1144      C1149   1.430       .  A
C1144      C1286   1.481       .  S
C1145      H1150   1.083       .  S
C1146      C1147   1.395       .  A
C1146      C1155   1.509   1_554  S
C1147      H1151   1.054       .  S
C1148      C1149   1.403       .  A
C1149      H1152   1.083       .  S
C1153      C1285   1.481       .  S
C1154      C1155   1.401   1_554  A
C1155      C1156   1.395       .  A
C1156      C1157   1.395       .  A
C1156      H1160   1.053       .  S
C1157      C1158   1.402   1_556  A
C1157      C1166   1.510   1_556  S
C1158      H1161   1.083       .  S
C1162      C1163   1.429       .  A
C1162      C1167   1.430       .  A
C1163      C1164   1.401   1_556  A
C1163      H1168   1.083       .  S
C1164      C1165   1.395       .  A
C1165      C1166   1.395       .  A
C1165      H1169   1.053       .  S
C1166      C1167   1.402   1_554  A
C1167      H1170   1.083       .  S
C1171      C1172   1.429       .  A
C1171      C1176   1.430       .  A
C1171      C1290   1.482       .  S
C1172      C1173   1.402       .  A
C1172      H1177   1.083       .  S
C1173      C1174   1.396       .  A
C1173      C1200   1.510       .  S
C1174      C1175   1.396       .  A
C1174      H1178   1.055       .  S
C1175      C1176   1.403       .  A
C1175      C1184   1.510       .  S
C1176      H1179   1.083       .  S
C1180      C1181   1.429       .  A
C1180      C1185   1.430       .  A
C1180      C1287   1.482       .  S
C1181      C1182   1.402       .  A
C1181      H1186   1.083       .  S
C1182      C1183   1.396       .  A
C1182      C1191   1.510       .  S
C1183      C1184   1.396       .  A
C1183      H1187   1.055       .  S
C1184      C1185   1.403       .  A
C1185      H1188   1.083       .  S
C1189      C1190   1.430       .  A
C1189      C1194   1.429       .  A
C1189      C1288   1.481       .  S
C1190      C1191   1.402       .  A
C1190      H1195   1.083       .  S
C1191      C1192   1.395       .  A
C1192      C1193   1.395       .  A
C1192      H1196   1.054       .  S
C1193      C1194   1.402       .  A
C1193      C1202   1.509       .  S
C1194      H1197   1.083       .  S
C1198      C1199   1.430       .  A
C1198      C1203   1.429       .  A
C1198      C1289   1.481       .  S
C1199      C1200   1.402       .  A
C1199      H1204   1.083       .  S
C1200      C1201   1.395       .  A
C1201      C1202   1.395       .  A
C1201      H1205   1.054       .  S
C1202      C1203   1.402       .  A
C1203      H1206   1.083       .  S
C1207      C1208   1.430       .  A
C1207      C1212   1.430       .  A
C1207      C1291   1.480       .  S
C1208      C1209   1.402       .  A
C1208      H1213   1.083       .  S
C1209      C1210   1.395       .  A
C1209      C1218   1.510       .  S
C1210      C1211   1.395       .  A
C1210      H1214   1.053       .  S
C1211      C1212   1.402       .  A
C1211      C1227   1.509       .  S
C1212      H1215   1.083       .  S
C1216      C1217   1.430       .  A
C1216      C1221   1.429       .  A
C1216      C1256   1.480       .  S
C1217      C1218   1.402       .  A
C1217      H1222   1.083       .  S
C1218      C1219   1.395       .  A
C1219      C1220   1.395       .  A
C1219      H1223   1.053       .  S
C1220      C1221   1.402       .  A
C1220      C1236   1.509       .  S
C1221      H1224   1.083       .  S
C1225      C1226   1.429       .  A
C1225      C1230   1.430       .  A
C1225      C1292   1.481       .  S
C1226      C1227   1.402       .  A
C1226      H1231   1.083       .  S
C1227      C1228   1.396       .  A
C1228      C1229   1.395       .  A
C1228      H1232   1.054       .  S
C1229      C1230   1.402       .  A
C1229      C1238   1.510       .  S
C1230      H1233   1.083       .  S
C1234      C1235   1.429       .  A
C1234      C1239   1.430       .  A
C1234      C1257   1.481       .  S
C1235      C1236   1.402       .  A
C1235      H1240   1.083       .  S
C1236      C1237   1.396       .  A
C1237      C1238   1.396       .  A
C1237      H1241   1.054       .  S
C1238      C1239   1.402       .  A
C1239      H1242   1.083       .  S
O1243      C1254   1.292       .  A
O1244      C1255   1.292       .  A
O1245      C1256   1.292       .  A
O1246      C1257   1.292       .  A
O1246     Eu1251   2.460       .  S
O1247      C1257   1.293       .  A
O1248      C1256   1.292       .  A
O1249      C1255   1.292       .  A
O1249     Eu1251   2.458       .  S
O1250      C1254   1.292       .  A
Eu1251     O1252   2.342       .  S
H1258      O1259   0.965       .  S
H1260      O1261   0.965       .  S
O1262      C1285   1.292       .  A
O1262     Eu1278   2.459       .  S
O1263      C1286   1.292       .  A
O1263     Eu1279   2.459       .  S
O1264      C1287   1.292       .  A
O1264     Eu1280   2.460       .  S
O1265      C1288   1.292       .  A
O1265     Eu1281   2.458       .  S
O1266      C1289   1.292       .  A
O1267      C1290   1.292       .  A
O1268      C1291   1.292       .  A
O1269      C1292   1.292       .  A
O1269     Eu1282   2.460       .  S
O1270      C1291   1.292       .  A
O1270     Eu1280   2.460       .  S
O1271      C1292   1.293       .  A
O1271     Eu1281   2.463       .  S
O1272      C1287   1.292       .  A
O1273      C1290   1.292       .  A
O1274      C1289   1.292       .  A
O1274     Eu1279   2.458       .  S
O1275      C1288   1.292       .  A
O1275     Eu1278   2.458       .  S
O1276      C1285   1.292       .  A
O1276     Eu1282   2.458       .  S
O1277      C1286   1.292       .  A
Eu1278     O1296   2.346       .  S
Eu1279     O1283   2.347       .  S
Eu1280     O1284   2.359       .  S
Eu1281     O1296   2.363       .  S
Eu1282     O1296   2.363       .  S
H1293      O1294   0.965       .  S
H1295      O1296   0.965       .  S
