geometry optimzed in LAMMPS
_audit_creation_date              2020-12-01 
_audit_creation_method            'lammps2cif' 
_symmetry_space_group_name_H-M    'P1' 
_symmetry_Int_Tables_number       1 
_symmetry_cell_setting            triclinic 
loop_ 
_symmetry_equiv_pos_as_xyz 
  x,y,z 
_cell_length_a                    36.04569604 
_cell_length_b                    36.290071746036794 
_cell_length_c                    49.597712751038294 
_cell_angle_alpha                 90.67585798029016 
_cell_angle_beta                  89.72243491619588 
_cell_angle_gamma                 120.75046915059508 
loop_ 
_atom_site_label 
_atom_site_type_symbol 
_atom_site_fract_x 
_atom_site_fract_y 
_atom_site_fract_z 
_atom_site_charge 
O1          O  0.09135238  0.32605213  0.28790294    -0.82400
C2          C  0.21887633  0.35679856  0.20834589     0.96900
O3          O  0.21653245  0.38425837  0.22308264    -0.71500
O4          O  0.14215947  0.38322198  0.21951914    -0.75100
Al5        Al  0.17536433  0.38120703  0.24912010     1.49000
C6          C  0.10150099  0.36591203  0.21961376     0.92200
O7          O  0.07719079  0.26421646  0.22246565    -0.81400
O8          O  0.15232177  0.26860636  0.28137937    -0.74900
Al9        Al  0.08791295  0.29652787  0.25509018     1.90100
O10         O  0.12604217  0.24649403  0.22891384    -0.74000
O11         O  0.22382347  0.33556700  0.26456178    -0.73800
O12         O  0.19446839  0.31726622  0.21259526    -0.79500
O13         O  0.21185242  0.38599277  0.27863329    -0.77700
O14         O  0.14499545  0.32421202  0.25051019    -1.13800
O15         O  0.14118454  0.39037825  0.27497336    -0.73000
C16         C  0.11090540  0.36635014  0.29073989     0.97700
C17         C  0.09276254  0.24085414  0.21689746     0.94100
Al18       Al  0.17177073  0.29451960  0.24717584     1.55600
O19         O  0.07868924  0.33520015  0.23512410    -0.77700
C20         C  0.23397097  0.36800520  0.27918102     0.98300
C21         C  0.11310649  0.24632801  0.28790226     0.93100
O22         O  0.08485428  0.25138415  0.27636069    -0.83000
C23         C  0.97770332  0.48762774  0.08073668     0.85900
C24         C  0.00179953  0.46552665  0.09091995    -0.54400
C25         C  0.00464660  0.46501828  0.11833562     0.08800
C26         C  0.98287454  0.48640905  0.13311916     0.19700
C27         C  0.43374695  0.46464265  0.09519542    -0.55100
C28         C  0.43661075  0.46454979  0.12262024     0.08900
C29         C  0.00215572  0.03577364  0.09480204    -0.54600
C30         C  0.00472256  0.03429922  0.12215044     0.09500
H31         H  0.01553705  0.45170391  0.07755002     0.14000
H32         H  0.98534402  0.48642023  0.15542962    -0.00300
H33         H  0.40265654  0.45059141  0.08538191     0.14300
H34         H  0.01587950  0.06570485  0.08387951     0.14100
C35         C  0.48705538  0.99564817  0.41810578     0.85900
C36         C  0.01036799  0.03837851  0.40277103    -0.54400
C37         C  0.00496047  0.03388386  0.37546085     0.08800
C38         C  0.47732295  0.98675919  0.36583370     0.19700
C39         C  0.43669760  0.47243146  0.40998536    -0.55100
C40         C  0.43214268  0.46800466  0.38251471     0.08900
C41         C  0.00253400  0.47009292  0.40711481    -0.54600
C42         C  0.99807094  0.46556239  0.37983224     0.09500
H43         H  0.02755762  0.06944200  0.41284739     0.14000
H44         H  0.47384445  0.98320344  0.34357198    -0.00300
H45         H  0.40935329  0.46057928  0.42358867     0.14300
H46         H  0.01665644  0.45474082  0.41819375     0.14100
O47         O  0.42728033  0.18582197  0.77623339    -0.82400
C48         C  0.26948273  0.12965122  0.71970296     0.96900
O49         O  0.28070403  0.10760116  0.73316154    -0.71500
O50         O  0.35366158  0.11054185  0.72007961    -0.75100
Al51       Al  0.33090997  0.11940491  0.75296066     1.49000
C52         C  0.39218268  0.13124076  0.71180832     0.92200
O53         O  0.41167330  0.23382468  0.71261375    -0.81400
O54         O  0.35974316  0.23920716  0.78059692    -0.74900
Al55       Al  0.41509303  0.20740505  0.74472528     1.90100
O56         O  0.36106722  0.24641098  0.72541851    -0.74000
O57         O  0.28516638  0.16561078  0.77591439    -0.73800
O58         O  0.29089887  0.17014156  0.72109344    -0.79500
O59         O  0.30449737  0.11955004  0.78652932    -0.77700
O60         O  0.35775626  0.17651180  0.74936310    -1.13800
O61         O  0.37480720  0.11901487  0.77363238    -0.73000
C62         C  0.41003991  0.14746460  0.78377777     0.97700
C63         C  0.39129256  0.25318999  0.70961386     0.94100
Al64       Al  0.32712682  0.20298822  0.75066320     1.55600
O65         O  0.41878635  0.16714891  0.72196932    -0.77700
C66         C  0.28110050  0.13564119  0.79052092     0.98300
C67         C  0.40047942  0.26191595  0.78192282     0.93100
O68         O  0.42364008  0.25433876  0.76639559    -0.83000
C69         C  0.02294243  0.51261973  0.92051836     0.85900
C70         C  0.49611779  0.46631774  0.90991378    -0.54400
C71         C  0.49278665  0.46288017  0.88255692     0.08800
C72         C  0.01654556  0.50619277  0.86807115     0.19700
C73         C  0.06819255  0.03812715  0.90560995    -0.55100
C74         C  0.06474628  0.03561677  0.87812722     0.08900
C75         C  0.50149140  0.03895009  0.90831608    -0.54600
C76         C  0.49778229  0.03576479  0.88094799     0.09500
H77         H  0.48110831  0.43854405  0.92294076     0.14000
H78         H  0.01380657  0.50342051  0.84573098    -0.00300
H79         H  0.09940560  0.05584681  0.91531597     0.14300
H80         H  0.48827967  0.05464887  0.92044497     0.14100
C81         C  0.02051958  0.51028938  0.58156714     0.85900
C82         C  0.49255997  0.02218368  0.59490729    -0.54400
C83         C  0.49387288  0.02094123  0.62241680     0.08800
C84         C  0.02257895  0.50472773  0.63399244     0.19700
C85         C  0.06462051  0.03189159  0.59235593    -0.55100
C86         C  0.06625296  0.03119327  0.61988207     0.08900
C87         C  0.50283737  0.46402005  0.59188656    -0.54600
C88         C  0.50389611  0.46112773  0.61913878     0.09500
H89         H  0.47335850  0.03315509  0.58496256     0.14000
H90         H  0.02349239  0.50230972  0.65626385    -0.00300
H91         H  0.09319021  0.04965194  0.57994134     0.14300
H92         H  0.49052792  0.43612666  0.57864611     0.14100
C93         C  0.42274225  0.29874257  0.80103025    -0.05900
C94         C  0.46811219  0.32431591  0.80000237    -0.05800
C95         C  0.49046681  0.36065923  0.81627414    -0.24000
C96         C  0.46813595  0.37227991  0.83420285     0.18300
C97         C  0.42268837  0.34632324  0.83634294     0.15500
C98         C  0.40012511  0.30968508  0.81959998    -0.19000
C99         C  0.40084026  0.35800994  0.85493196    -0.20800
C100        C  0.42376790  0.39530889  0.87075171    -0.13400
C101        C  0.46865429  0.42163536  0.86789165     0.03300
C102        C  0.49065044  0.40989057  0.84971935    -0.25500
H103        H  0.48664018  0.31674646  0.78614843     0.08400
H104        H  0.52529656  0.37997976  0.81459233     0.12000
H105        H  0.36526081  0.29017391  0.82079865     0.11900
H106        H  0.36609349  0.33861438  0.85702533     0.11700
H107        H  0.40640591  0.40431569  0.88464637     0.12200
H108        H  0.52535023  0.43027668  0.84759903     0.14200
C109        C  0.10279350  0.05782574  0.85996284    -0.05900
C110        C  0.10052705  0.07902505  0.83708244    -0.05800
C111        C  0.13591138  0.10028520  0.81984491    -0.24000
C112        C  0.17412640  0.10025006  0.82493503     0.18300
C113        C  0.17702528  0.07920813  0.84791282     0.15500
C114        C  0.14151420  0.05860034  0.86550116    -0.19000
C115        C  0.21502199  0.07832209  0.85247719    -0.20800
C116        C  0.24926979  0.09701264  0.83404142    -0.13400
C117        C  0.24656212  0.11793222  0.81115760     0.03300
C118        C  0.20906838  0.12001717  0.80702955    -0.25500
H119        H  0.07149549  0.07972063  0.83268583     0.08400
H120        H  0.13319862  0.11635047  0.80234013     0.12000
H121        H  0.14357612  0.04220258  0.88304019     0.11900
H122        H  0.21787421  0.06235322  0.86998050     0.11700
H123        H  0.27782748  0.09506113  0.83761833     0.12200
H124        H  0.20636789  0.13559326  0.78924190     0.14200
C125        C  0.43116592  0.13483789  0.80430491    -0.05900
C126        C  0.47197033  0.16464124  0.81490587    -0.05800
C127        C  0.49252883  0.15171272  0.83317957    -0.24000
C128        C  0.47272290  0.10871088  0.84107355     0.18300
C129        C  0.43137595  0.07866408  0.83085204     0.15500
C130        C  0.41086257  0.09194462  0.81276898    -0.19000
C131        C  0.41163110  0.03550665  0.83831281    -0.20800
C132        C  0.43314680  0.02197553  0.85517615    -0.13400
C133        C  0.47423576  0.05145991  0.86521676     0.03300
C134        C  0.49384942  0.09490971  0.85843479    -0.25500
H135        H  0.48829614  0.19785031  0.80877406     0.08400
H136        H  0.52419869  0.17519144  0.84079380     0.12000
H137        H  0.37935311  0.06852688  0.80486192     0.11900
H138        H  0.37998821  0.01207314  0.83062414     0.11700
H139        H  0.43193237  0.48514680  0.84664731     0.12200
H140        H  0.52592762  0.11748326  0.86595925     0.14200
C141        C  0.40379369  0.28590825  0.68848189    -0.05900
C142        C  0.37437784  0.29819966  0.68032713    -0.05800
C143        C  0.38745685  0.33334182  0.66352337    -0.24000
C144        C  0.43042828  0.35736128  0.65495407     0.18300
C145        C  0.45996824  0.34437737  0.66218881     0.15500
C146        C  0.44625705  0.30829112  0.67855240    -0.19000
C147        C  0.50318345  0.36891526  0.65396063    -0.20800
C148        C  0.51730397  0.40671637  0.63957421    -0.13400
C149        C  0.48833752  0.42012453  0.63294257     0.03300
C150        C  0.44478554  0.39504193  0.64017011    -0.25500
H151        H  0.34140881  0.28124720  0.68756910     0.08400
H152        H  0.36433353  0.34265201  0.65804375     0.12000
H153        H  0.46925868  0.29925495  0.68486122     0.11900
H154        H  0.52627141  0.35948752  0.65926036     0.11700
H155        H  0.55096986  0.42587678  0.63391610     0.12200
H156        H  0.42251150  0.40560198  0.63496890     0.14200
C157        C  0.22941371  0.10687531  0.70347674    -0.05900
C158        C  0.19672857  0.06584148  0.71148273    -0.05800
C159        C  0.15822724  0.04341344  0.69700671    -0.24000
C160        C  0.15177597  0.06125590  0.67392472     0.18300
C161        C  0.18440102  0.10243089  0.66550203     0.15500
C162        C  0.22286416  0.12531856  0.68056010    -0.19000
C163        C  0.17801079  0.11971680  0.64205268    -0.20800
C164        C  0.13983809  0.09646420  0.62713986    -0.13400
C165        C  0.10708796  0.05566849  0.63552029     0.03300
C166        C  0.11333729  0.03837200  0.65904787    -0.25500
H167        H  0.20073551  0.05119424  0.72928274     0.08400
H168        H  0.13358208  0.01196432  0.70379732     0.12000
H169        H  0.24786781  0.15692619  0.67422416     0.11900
H170        H  0.20255290  0.15115732  0.63520522     0.11700
H171        H  0.13564389  0.11076770  0.60924716     0.12200
H172        H  0.09484194  0.50220019  0.66049118     0.14200
C173        C  0.40785380  0.11384254  0.69045530    -0.05900
C174        C  0.43430655  0.14100488  0.66989748    -0.05800
C175        C  0.45457060  0.12737982  0.65160202    -0.24000
C176        C  0.44991059  0.08678099  0.65408407     0.18300
C177        C  0.42349212  0.05917505  0.67478934     0.15500
C178        C  0.40182633  0.07253515  0.69249885    -0.19000
C179        C  0.42052138  0.01936849  0.67799617    -0.20800
C180        C  0.44381440  0.00727498  0.66110794    -0.13400
C181        C  0.46956292  0.03421556  0.64029389     0.03300
C182        C  0.47215368  0.07380879  0.63669496    -0.25500
H183        H  0.43981136  0.17317892  0.66828689     0.08400
H184        H  0.47493435  0.14909889  0.63602175     0.12000
H185        H  0.38239750  0.05190524  0.70877813     0.11900
H186        H  0.40072286  0.99788071  0.69382479     0.11700
H187        H  0.44467553  0.47950265  0.66711148     0.12200
H188        H  0.99317074  0.09529458  0.62099307     0.14200
C189        C  0.02114284  0.51109458  0.55078748    -0.05900
C190        C  0.54624565  0.49626629  0.53749241    -0.05800
C191        C  0.54513483  0.49185460  0.50952453    -0.24000
C192        C  0.51911588  0.50183034  0.49410295     0.18300
C193        C  0.99791640  0.01600645  0.50525286     0.15500
C194        C  0.99918621  0.02075320  0.53348183    -0.19000
C195        C  0.97737188  0.03183424  0.48919303    -0.20800
C196        C  0.97473031  0.02535947  0.46125598    -0.13400
C197        C  0.49193522  0.00267361  0.44866788     0.03300
C198        C  0.51589111  0.49484705  0.46611485    -0.25500
H199        H  0.56561078  0.48692956  0.54892320     0.08400
H200        H  0.56381976  0.47954826  0.50002307     0.12000
H201        H  0.98426359  0.03723267  0.54239716     0.11900
H202        H  0.96291101  0.04883738  0.49825231     0.11700
H203        H  0.95840328  0.03770776  0.44938491     0.12200
H204        H  0.53517508  0.48313111  0.45700843     0.14200
C205        C  0.97795625  0.49030514  0.05003461    -0.05900
C206        C  0.44041356  0.47629009  0.03460438    -0.05800
C207        C  0.44235123  0.47903545  0.00652723    -0.24000
C208        C  0.48201766  0.49657129  0.99319542     0.18300
C209        C  0.02151226  0.01533976  0.00838011     0.15500
C210        C  0.01950986  0.01288119  0.03662536    -0.19000
C211        C  0.06101877  0.03177919  0.99492389    -0.20800
C212        C  0.06269211  0.03306854  0.96675463    -0.13400
C213        C  0.02348206  0.51429297  0.95130686     0.03300
C214        C  0.48388297  0.49813254  0.96496640    -0.25500
H215        H  0.40895439  0.46268357  0.04362669     0.08400
H216        H  0.41266142  0.46711703  0.99520798     0.12000
H217        H  0.04902496  0.02441953  0.04810509     0.11900
H218        H  0.09067180  0.04312045  0.00618942     0.11700
H219        H  0.09384905  0.04495975  0.95757076     0.12200
H220        H  0.45425271  0.48557775  0.95346907     0.14200
C221        C  0.01237909  0.44033452  0.36393771    -0.05900
C222        C  0.98183247  0.40118807  0.35203878    -0.05800
C223        C  0.99509131  0.37710257  0.33696419    -0.24000
C224        C  0.03920325  0.39227179  0.33314553     0.18300
C225        C  0.07017010  0.43182056  0.34506364     0.15500
C226        C  0.05653145  0.45526535  0.36074637    -0.19000
C227        C  0.11420825  0.44780584  0.34045948    -0.20800
C228        C  0.12742900  0.42562391  0.32349061    -0.13400
C229        C  0.09700100  0.38641292  0.31146829     0.03300
C230        C  0.05287168  0.36937987  0.31687580    -0.25500
H231        H  0.44790120  0.38980240  0.35398443     0.08400
H232        H  0.47080334  0.34768933  0.32706305     0.12000
H233        H  0.08011574  0.48559585  0.36990498     0.06900
H234        H  0.13837356  0.47810490  0.34932221     0.11700
H235        H  0.16153843  0.43943473  0.31940514     0.12200
H236        H  0.02914700  0.33960457  0.30720722     0.14200
C237        C  0.27309686  0.38493038  0.29603745    -0.05900
C238        C  0.30701276  0.37949184  0.28696268    -0.05800
C239        C  0.34407709  0.39379411  0.30246297    -0.24000
C240        C  0.34784223  0.41345172  0.32754204     0.18300
C241        C  0.31389320  0.41882898  0.33716213     0.15500
C242        C  0.27670878  0.40486316  0.32117573    -0.19000
C243        C  0.31798015  0.43810659  0.36254332    -0.20800
C244        C  0.35574761  0.45290062  0.37781414    -0.13400
C245        C  0.39008974  0.44865673  0.36796824     0.03300
C246        C  0.38533065  0.42814041  0.34296565    -0.25500
H247        H  0.30498059  0.36435907  0.26762375     0.08400
H248        H  0.36983550  0.38946224  0.29480939     0.12000
H249        H  0.25046017  0.40873112  0.32841957     0.11900
H250        H  0.29228347  0.44234968  0.37039558     0.11700
H251        H  0.35858568  0.46890350  0.39690164     0.12200
H252        H  0.41089544  0.42362770  0.33526905     0.14200
C253        C  0.01969587  0.07074951  0.35720780    -0.05900
C254        C  0.99250756  0.06846939  0.33627798    -0.05800
C255        C  0.00507198  0.10317466  0.31926917    -0.24000
C256        C  0.04529734  0.14061596  0.32271282     0.18300
C257        C  0.07323570  0.14325513  0.34353409     0.15500
C258        C  0.06003324  0.10839331  0.36087925    -0.19000
C259        C  0.11401935  0.18048699  0.34633770    -0.20800
C260        C  0.12717275  0.21444231  0.32838580    -0.13400
C261        C  0.09929854  0.21201854  0.30785570     0.03300
C262        C  0.05822839  0.17517785  0.30535194    -0.25500
H263        H  0.46014749  0.04009437  0.33375575     0.08400
H264        H  0.98336084  0.10067924  0.30336625     0.12000
H265        H  0.08131889  0.11022045  0.37687671     0.11900
H266        H  0.13592734  0.18306059  0.36211956     0.11700
H267        H  0.15903413  0.24261297  0.33055097     0.12200
H268        H  0.03681292  0.17280674  0.28926064     0.14200
C269        C  0.07911067  0.38183590  0.20266536    -0.05900
C270        C  0.03854438  0.37439728  0.21115114    -0.05800
C271        C  0.01599388  0.38866382  0.19605846    -0.24000
C272        C  0.03325710  0.41035239  0.17194417     0.18300
C273        C  0.07368883  0.41757891  0.16279697     0.15500
C274        C  0.09670355  0.40362194  0.17840228    -0.19000
C275        C  0.09019134  0.43869898  0.13826626    -0.20800
C276        C  0.06727895  0.45315568  0.12332290    -0.13400
C277        C  0.02766770  0.44700212  0.13277636     0.03300
C278        C  0.01073139  0.42517376  0.15698384    -0.25500
H279        H  0.02432967  0.35789041  0.22982483     0.08400
H280        H  0.98503348  0.38280032  0.20331492     0.12000
H281        H  0.12776314  0.40917948  0.17158177     0.11900
H282        H  0.12097275  0.44441537  0.13077959     0.11700
H283        H  0.08110802  0.47023050  0.10477324     0.12200
H284        H  0.97983840  0.41959976  0.16419532     0.14200
C285        C  0.25330243  0.37152088  0.18777583    -0.05900
C286        C  0.25051140  0.34515870  0.16593992    -0.05800
C287        C  0.28533349  0.35838033  0.14814370    -0.24000
C288        C  0.32388468  0.39763058  0.15237650     0.18300
C289        C  0.32686627  0.42402689  0.17444301     0.15500
C290        C  0.29146669  0.41119466  0.19160229    -0.19000
C291        C  0.36555989  0.46252354  0.17943305    -0.20800
C292        C  0.40118092  0.47489398  0.16277142    -0.13400
C293        C  0.39864885  0.44939266  0.14056749     0.03300
C294        C  0.35973174  0.41078372  0.13529887    -0.25500
H295        H  0.22152817  0.31425002  0.16276395     0.08400
H296        H  0.28244305  0.33756682  0.13143269     0.12000
H297        H  0.29434924  0.43138388  0.20871150     0.11900
H298        H  0.36834908  0.48301319  0.19632039     0.11700
H299        H  0.43025880  0.00707887  0.16563911     0.12200
H300        H  0.35765631  0.39081619  0.11826394     0.14200
C301        C  0.02679058  0.07243024  0.13986430    -0.05900
C302        C  0.05620275  0.07443170  0.15904929    -0.05800
C303        C  0.07546245  0.10843802  0.17738928    -0.24000
C304        C  0.06495119  0.14060630  0.17715295     0.18300
C305        C  0.03526665  0.13900795  0.15796051     0.15500
C306        C  0.01670574  0.10504713  0.13908605    -0.19000
C307        C  0.02422953  0.17095770  0.15842763    -0.20800
C308        C  0.04239244  0.20404210  0.17776871    -0.13400
C309        C  0.07225441  0.20590649  0.19665419     0.03300
C310        C  0.08336035  0.17403003  0.19609987    -0.25500
H311        H  0.06422088  0.04947502  0.15985114     0.08400
H312        H  0.09809938  0.10923399  0.19202826     0.12000
H313        H  0.99343548  0.10311722  0.12451148     0.11900
H314        H  0.00141218  0.17021515  0.14396739     0.11700
H315        H  0.03348303  0.22837317  0.17778375     0.12200
H316        H  0.10607070  0.17485259  0.21071315     0.14200
O317        O  0.09092959  0.82422847  0.28578288    -0.82400
C318        C  0.22055405  0.85539468  0.20830526     0.96900
O319        O  0.21768266  0.88275392  0.22275697    -0.71500
O320        O  0.14420914  0.88325376  0.21854300    -0.75100
Al321      Al  0.17648619  0.87978821  0.24839149     1.49000
C322        C  0.10359478  0.86637553  0.21819404     0.92200
O323        O  0.07831966  0.76337798  0.22024621    -0.81400
O324        O  0.15011373  0.76557661  0.28052811    -0.74900
Al325      Al  0.08813281  0.79523851  0.25298907     1.90100
O326        O  0.12658439  0.74509543  0.22745063    -0.74000
O327        O  0.22291070  0.83231569  0.26516799    -0.73800
O328        O  0.19653324  0.81581688  0.21263392    -0.79500
O329        O  0.21252947  0.88411213  0.27820673    -0.77700
O330        O  0.14545127  0.82260172  0.24935663    -1.13800
O331        O  0.14226099  0.88866620  0.27395492    -0.73000
C332        C  0.11137652  0.86442773  0.28921449     0.97700
C333        C  0.09371034  0.73972443  0.21502793     0.94100
Al334      Al  0.17168184  0.79232389  0.24668927     1.55600
O335        O  0.08015590  0.83480894  0.23297205    -0.77700
C336        C  0.23367367  0.86516340  0.27949694     0.98300
C337        C  0.11062695  0.74362269  0.28652056     0.93100
O338        O  0.08317423  0.74908641  0.27427634    -0.83000
C339        C  0.97929166  0.99127148  0.08097277     0.85900
C340        C  0.00371252  0.96931658  0.09100761    -0.54400
C341        C  0.00632484  0.96821141  0.11845132     0.08800
C342        C  0.98389135  0.98886224  0.13333936     0.19700
C343        C  0.43491188  0.96612231  0.09484186    -0.55100
C344        C  0.43748564  0.96566589  0.12225179     0.08900
C345        C  0.00110917  0.53243884  0.09414308    -0.54600
C346        C  0.00401358  0.53158798  0.12148993     0.09500
H347        H  0.01783752  0.95604824  0.07751124     0.14000
H348        H  0.98589841  0.98834127  0.15565036    -0.00300
H349        H  0.40390212  0.95181884  0.08488853     0.14300
H350        H  0.01501185  0.56213241  0.08294545     0.14100
C351        C  0.48412882  0.49611264  0.41985410     0.85900
C352        C  0.00514885  0.53854921  0.40452832    -0.54400
C353        C  0.00043465  0.53397723  0.37721557     0.08800
C354        C  0.47550568  0.48726813  0.36754700     0.19700
C355        C  0.43952377  0.97352406  0.40854530    -0.55100
C356        C  0.43449913  0.96898577  0.38113624     0.08900
C357        C  0.00523902  0.96891689  0.40500861    -0.54600
C358        C  0.00004895  0.96446216  0.37780581     0.09500
H359        H  0.02127580  0.56965270  0.41460385     0.14000
H360        H  0.47295814  0.48426314  0.34526056    -0.00300
H361        H  0.41242922  0.96277100  0.42226241     0.14300
H362        H  0.01985632  0.95361707  0.41555599     0.14100
O363        O  0.42573747  0.68751533  0.78103226    -0.82400
C364        C  0.27149280  0.62633325  0.71923329     0.96900
O365        O  0.28262948  0.60511242  0.73352659    -0.71500
O366        O  0.35760050  0.61328611  0.72169213    -0.75100
Al367      Al  0.33262051  0.61901098  0.75408445     1.49000
C368        C  0.39685695  0.63458605  0.71513851     0.92200
O369        O  0.41285255  0.73482538  0.71601302    -0.81400
O370        O  0.35426469  0.73733242  0.78171715    -0.74900
Al371      Al  0.41501874  0.70879030  0.74860051     1.90100
O372        O  0.35915431  0.74421445  0.72646327    -0.74000
O373        O  0.28211924  0.66075214  0.77598588    -0.73800
O374        O  0.29141774  0.66674050  0.72104415    -0.79500
O375        O  0.30419590  0.61684113  0.78693159    -0.77700
O376        O  0.35751317  0.67601180  0.75136765    -1.13800
O377        O  0.37679220  0.61991306  0.77509600    -0.73000
C378        C  0.41044576  0.64854153  0.78668810     0.97700
C379        C  0.39126202  0.75270550  0.71188134     0.94100
Al380      Al  0.32471006  0.70007899  0.75136719     1.55600
O381        O  0.42243171  0.66974945  0.72661841    -0.77700
C382        C  0.27873084  0.63068186  0.79033883     0.98300
C383        C  0.39469724  0.76258937  0.78291286     0.93100
O384        O  0.41980768  0.75509507  0.76933751    -0.83000
C385        C  0.02432924  0.01718387  0.92046680     0.85900
C386        C  0.49947339  0.97068202  0.90912815    -0.54400
C387        C  0.49545752  0.96757764  0.88169161     0.08800
C388        C  0.01768857  0.01178638  0.86797762     0.19700
C389        C  0.06677445  0.53147636  0.90573219    -0.55100
C390        C  0.06315298  0.52846775  0.87832530     0.08900
C391        C  0.50148689  0.53618962  0.90778781    -0.54600
C392        C  0.49780521  0.53201264  0.88035862     0.09500
H393        H  0.48586742  0.94284976  0.92207865     0.14000
H394        H  0.01441009  0.00990268  0.84570026    -0.00300
H395        H  0.09819700  0.54836256  0.91524333     0.14300
H396        H  0.48916699  0.55314255  0.91946264     0.14100
C397        C  0.01895347  0.00494259  0.58042476     0.85900
C398        C  0.49411205  0.52609268  0.59690116    -0.54400
C399        C  0.49493884  0.52284686  0.62433910     0.08800
C400        C  0.02164835  0.00310875  0.63301954     0.19700
C401        C  0.06596192  0.53673742  0.59387213    -0.55100
C402        C  0.06717402  0.53372855  0.62122715     0.08900
C403        C  0.50093111  0.95976913  0.59211263    -0.54600
C404        C  0.50292250  0.95902630  0.61944651     0.09500
H405        H  0.47610243  0.53889979  0.58751929     0.14000
H406        H  0.02239630  0.00214087  0.65536911    -0.00300
H407        H  0.09477000  0.55589084  0.58189355     0.14300
H408        H  0.48820121  0.93086075  0.57977781     0.14100
C409        C  0.41440596  0.80353286  0.79826378    -0.05900
C410        C  0.45046414  0.83924639  0.78683888    -0.05800
C411        C  0.47246251  0.87822435  0.80066163    -0.24000
C412        C  0.45925287  0.88239836  0.82646804     0.18300
C413        C  0.42262763  0.84708859  0.83822799     0.15500
C414        C  0.39988573  0.80776598  0.82386176    -0.19000
C415        C  0.41011956  0.85175452  0.86428246    -0.20800
C416        C  0.43374532  0.89069845  0.87845608    -0.13400
C417        C  0.47033041  0.92587308  0.86686615     0.03300
C418        C  0.48264312  0.92129386  0.84074716    -0.25500
H419        H  0.46186723  0.83693839  0.76699213     0.08400
H420        H  0.50026191  0.90497130  0.79127458     0.12000
H421        H  0.37217318  0.78039443  0.83284970     0.11900
H422        H  0.38218199  0.82528597  0.87374292     0.11700
H423        H  0.42293124  0.89339556  0.89838109     0.12200
H424        H  0.51111157  0.94766540  0.83165754     0.14200
C425        C  0.10076196  0.55089783  0.86025784    -0.05900
C426        C  0.10288899  0.58152115  0.84232494    -0.05800
C427        C  0.13898781  0.60448689  0.82586077    -0.24000
C428        C  0.17317866  0.59653653  0.82672613     0.18300
C429        C  0.17090755  0.56515284  0.84440874     0.15500
C430        C  0.13490351  0.54288947  0.86135301    -0.19000
C431        C  0.20456108  0.55641683  0.84468796    -0.20800
C432        C  0.24005135  0.57836743  0.82754767    -0.13400
C433        C  0.24288494  0.60989932  0.81004448     0.03300
C434        C  0.20927555  0.61897914  0.80992384    -0.25500
H435        H  0.07689511  0.58825601  0.84146372     0.08400
H436        H  0.14008681  0.62831833  0.81239097     0.12000
H437        H  0.13311959  0.51906582  0.87513383     0.11900
H438        H  0.20321221  0.53224373  0.85794397     0.11700
H439        H  0.26515566  0.57036627  0.82783203     0.12200
H440        H  0.21057707  0.64268311  0.79623250     0.14200
C441        C  0.43176640  0.63497944  0.80648038    -0.05900
C442        C  0.46557131  0.66457888  0.82319213    -0.05800
C443        C  0.48466043  0.65050340  0.84189388    -0.24000
C444        C  0.47046535  0.60664617  0.84400359     0.18300
C445        C  0.43705813  0.57690341  0.82684806     0.15500
C446        C  0.41802007  0.59117391  0.80841040    -0.19000
C447        C  0.42322770  0.53320816  0.82821058    -0.20800
C448        C  0.44256133  0.51898754  0.84625183    -0.13400
C449        C  0.47555196  0.54800964  0.86350242     0.03300
C450        C  0.48930231  0.59188492  0.86257235    -0.25500
H451        H  0.47697919  0.69850878  0.82196058     0.08400
H452        H  0.51049368  0.67387339  0.85467004     0.12000
H453        H  0.39247125  0.56791123  0.79538820     0.11900
H454        H  0.39779527  0.51007836  0.81509204     0.11700
H455        H  0.41799923  0.98832096  0.86014726     0.12200
H456        H  0.51541872  0.61440781  0.87554878     0.14200
C457        C  0.40438235  0.78556866  0.69076701    -0.05900
C458        C  0.37435858  0.79596216  0.68095602    -0.05800
C459        C  0.38729640  0.83049968  0.66364659    -0.24000
C460        C  0.43071172  0.85587630  0.65623075     0.18300
C461        C  0.46111708  0.84514602  0.66539150     0.15500
C462        C  0.44760897  0.80961853  0.68226476    -0.19000
C463        C  0.50476802  0.87121302  0.65839215    -0.20800
C464        C  0.51829469  0.90821055  0.64321624    -0.13400
C465        C  0.48831049  0.91919487  0.63449243     0.03300
C466        C  0.44448249  0.89262747  0.64058198    -0.25500
H467        H  0.34086729  0.77781070  0.68714006     0.08400
H468        H  0.36357116  0.83817548  0.65675479     0.12000
H469        H  0.47111085  0.80214476  0.68991807     0.11900
H470        H  0.52854951  0.86355295  0.66518397     0.11700
H471        H  0.55220764  0.92851573  0.63844559     0.12200
H472        H  0.42143415  0.90131702  0.63378327     0.14200
C473        C  0.23328475  0.60282865  0.70144449    -0.05900
C474        C  0.20473395  0.55865713  0.70525973    -0.05800
C475        C  0.16652558  0.53643010  0.69043309    -0.24000
C476        C  0.15628209  0.55777472  0.67120520     0.18300
C477        C  0.18545726  0.60180614  0.66642267     0.15500
C478        C  0.22363165  0.62414583  0.68169388    -0.19000
C479        C  0.17567146  0.62280903  0.64662870    -0.20800
C480        C  0.13731306  0.60051516  0.63187027    -0.13400
C481        C  0.10776528  0.55706126  0.63692685     0.03300
C482        C  0.11733423  0.53585708  0.65672123    -0.25500
H483        H  0.21131018  0.54137338  0.72033265     0.08400
H484        H  0.14478962  0.50263684  0.69420737     0.12000
H485        H  0.24552805  0.65806993  0.67839352     0.11900
H486        H  0.19763550  0.65645411  0.64257899     0.11700
H487        H  0.13034534  0.61741574  0.61673247     0.12200
H488        H  0.08868498  0.00671151  0.66552039     0.14200
C489        C  0.41406052  0.61815696  0.69439981    -0.05900
C490        C  0.44005006  0.64518994  0.67371889    -0.05800
C491        C  0.45958856  0.63117811  0.65516074    -0.24000
C492        C  0.45455020  0.59039845  0.65758858     0.18300
C493        C  0.42896138  0.56321574  0.67868211     0.15500
C494        C  0.40808748  0.57695434  0.69663655    -0.19000
C495        C  0.42564848  0.52326499  0.68183556    -0.20800
C496        C  0.44750801  0.51039950  0.66428536    -0.13400
C497        C  0.47211494  0.53676946  0.64295130     0.03300
C498        C  0.47538366  0.57670482  0.63962587    -0.25500
H499        H  0.44528498  0.67725260  0.67201543     0.08400
H500        H  0.47937504  0.65255445  0.63927835     0.12000
H501        H  0.38884369  0.55649377  0.71303506     0.11900
H502        H  0.40654363  0.50219893  0.69801801     0.11700
H503        H  0.44129889  0.97654949  0.66407128     0.12200
H504        H  0.99471874  0.59781988  0.62348539     0.14200
C505        C  0.01923634  0.00404485  0.54961276    -0.05900
C506        C  0.53943593  0.98432308  0.53664787    -0.05800
C507        C  0.53791988  0.97922954  0.50870813    -0.24000
C508        C  0.51658639  0.99438402  0.49288368     0.18300
C509        C  0.99454589  0.51792398  0.50688131     0.15500
C510        C  0.99601552  0.52256204  0.53514339    -0.19000
C511        C  0.96860757  0.52790897  0.49126903    -0.20800
C512        C  0.96564995  0.52101354  0.46334759    -0.13400
C513        C  0.48881919  0.50357713  0.45039338     0.03300
C514        C  0.51366788  0.98787828  0.46486400    -0.25500
H515        H  0.55574431  0.97177618  0.54835853     0.08400
H516        H  0.55303255  0.96293681  0.49951556     0.12000
H517        H  0.97640764  0.53370343  0.54450317     0.11900
H518        H  0.95021255  0.54061953  0.50066973     0.11700
H519        H  0.94533239  0.52902320  0.45183166     0.12200
H520        H  0.52871553  0.97137630  0.45628115     0.14200
C521        C  0.97963256  0.99468774  0.05025124    -0.05900
C522        C  0.44198659  0.98016716  0.03451572    -0.05800
C523        C  0.44392763  0.98302841  0.00643070    -0.24000
C524        C  0.48349000  0.99974242  0.99304710     0.18300
C525        C  0.02007450  0.51166031  0.00831267     0.15500
C526        C  0.01796928  0.50931688  0.03653210    -0.19000
C527        C  0.05977362  0.52924069  0.99497403    -0.20800
C528        C  0.06152587  0.53040412  0.96681820    -0.13400
C529        C  0.02476903  0.01819211  0.95131113     0.03300
C530        C  0.48536721  0.00127159  0.96480299    -0.25500
H531        H  0.41064573  0.96742206  0.04359202     0.08400
H532        H  0.41431893  0.97186768  0.99514511     0.12000
H533        H  0.04752395  0.52176031  0.04810621     0.11900
H534        H  0.08950688  0.54160119  0.00631576     0.11700
H535        H  0.09291396  0.54349544  0.95774514     0.12200
H536        H  0.45575773  0.98909272  0.95332433     0.14200
C537        C  0.01410242  0.93947962  0.36162167    -0.05900
C538        C  0.98338382  0.90099457  0.34918763    -0.05800
C539        C  0.99635760  0.87704249  0.33384443    -0.24000
C540        C  0.04034900  0.89141567  0.33067336     0.18300
C541        C  0.07154930  0.93013283  0.34334969     0.15500
C542        C  0.05816070  0.95371781  0.35899864    -0.19000
C543        C  0.11555627  0.94503133  0.33963696    -0.20800
C544        C  0.12852793  0.92256563  0.32279336    -0.13400
C545        C  0.09775536  0.88430547  0.30999086     0.03300
C546        C  0.05367752  0.86836215  0.31445810    -0.25500
H547        H  0.44884569  0.88843852  0.35208066     0.08400
H548        H  0.47183990  0.84696773  0.32475497     0.12000
H549        H  0.08185290  0.98346159  0.36872126     0.06900
H550        H  0.13989532  0.97463823  0.34913083     0.11700
H551        H  0.16267642  0.93545574  0.31935038     0.12200
H552        H  0.02983055  0.83933865  0.30412974     0.14200
C553        C  0.27237205  0.88124921  0.29691909    -0.05900
C554        C  0.30288001  0.86930169  0.29047579    -0.05800
C555        C  0.33985748  0.88351369  0.30604383    -0.24000
C556        C  0.34702486  0.90961839  0.32869194     0.18300
C557        C  0.31637668  0.92126083  0.33597354     0.15500
C558        C  0.27931294  0.90742525  0.31979375    -0.19000
C559        C  0.32366435  0.94661981  0.35922266    -0.20800
C560        C  0.36123438  0.96083779  0.37466200    -0.13400
C561        C  0.39240040  0.95047923  0.36687189     0.03300
C562        C  0.38476554  0.92461939  0.34392528    -0.25500
H563        H  0.29847464  0.84925645  0.27300428     0.08400
H564        H  0.36294487  0.87413163  0.30029982     0.12000
H565        H  0.25583010  0.91648018  0.32512524     0.11900
H566        H  0.30057789  0.95580644  0.36530344     0.11700
H567        H  0.36665258  0.98117365  0.39212658     0.12200
H568        H  0.40842105  0.91640061  0.33767039     0.14200
C569        C  0.01465729  0.57074172  0.35889741    -0.05900
C570        C  0.98696653  0.56847933  0.33830510    -0.05800
C571        C  0.99959849  0.60283154  0.32089293    -0.24000
C572        C  0.04050679  0.63978198  0.32348647     0.18300
C573        C  0.06874719  0.64239157  0.34410267     0.15500
C574        C  0.05537741  0.60806771  0.36195367    -0.19000
C575        C  0.11015301  0.67891540  0.34611228    -0.20800
C576        C  0.12377040  0.71209827  0.32751927    -0.13400
C577        C  0.09584951  0.70978121  0.30704465     0.03300
C578        C  0.05396751  0.67373833  0.30541881    -0.25500
H579        H  0.45578925  0.54043137  0.33601031     0.08400
H580        H  0.97756188  0.60029901  0.30520775     0.12000
H581        H  0.07697823  0.60987527  0.37773339     0.11900
H582        H  0.13226791  0.68145739  0.36173996     0.11700
H583        H  0.15615209  0.73962245  0.32913249     0.12200
H584        H  0.03236518  0.67141679  0.28947469     0.14200
C585        C  0.08187673  0.88385731  0.20177715    -0.05900
C586        C  0.04195939  0.87749531  0.21084753    -0.05800
C587        C  0.01961145  0.89258028  0.19625688    -0.24000
C588        C  0.03632874  0.91404300  0.17199855     0.18300
C589        C  0.07625912  0.92059033  0.16234200     0.15500
C590        C  0.09918186  0.90586660  0.17749169    -0.19000
C591        C  0.09219790  0.94155698  0.13768315    -0.20800
C592        C  0.06909902  0.95617866  0.12302376    -0.13400
C593        C  0.02979734  0.95041323  0.13284513     0.03300
C594        C  0.01360559  0.92904604  0.15731934    -0.25500
H595        H  0.02801749  0.86102353  0.22957258     0.08400
H596        H  0.98909015  0.88731487  0.20395721     0.12000
H597        H  0.12977550  0.91076227  0.17021654     0.11900
H598        H  0.12262097  0.94685986  0.12980249     0.11700
H599        H  0.08251935  0.97295771  0.10433238     0.12200
H600        H  0.98298750  0.92370368  0.16490141     0.14200
C601        C  0.25490862  0.87047546  0.18774107    -0.05900
C602        C  0.25276089  0.84391691  0.16622776    -0.05800
C603        C  0.28749160  0.85764642  0.14834127    -0.24000
C604        C  0.32529856  0.89765085  0.15216926     0.18300
C605        C  0.32759299  0.92436204  0.17386577     0.15500
C606        C  0.29224374  0.91096913  0.19111553    -0.19000
C607        C  0.36561238  0.96367854  0.17843065    -0.20800
C608        C  0.40131061  0.97640755  0.16178944    -0.13400
C609        C  0.39942721  0.95044982  0.14002702     0.03300
C610        C  0.36113953  0.91118702  0.13508199    -0.25500
H611        H  0.22436384  0.81246497  0.16337765     0.08400
H612        H  0.28515752  0.83663950  0.13189961     0.12000
H613        H  0.29458220  0.93141186  0.20794494     0.11900
H614        H  0.36786694  0.98444661  0.19501396     0.11700
H615        H  0.43055527  0.50505614  0.16692281     0.12200
H616        H  0.35963054  0.89096626  0.11835241     0.14200
C617        C  0.02682409  0.57023005  0.13868731    -0.05900
C618        C  0.05872494  0.57401527  0.15645715    -0.05800
C619        C  0.07902864  0.60886096  0.17417599    -0.24000
C620        C  0.06694837  0.63992867  0.17481091     0.18300
C621        C  0.03467437  0.63638150  0.15706018     0.15500
C622        C  0.01517225  0.60172119  0.13873911    -0.19000
C623        C  0.02199961  0.66707818  0.15841310    -0.20800
C624        C  0.04095773  0.70079041  0.17728168    -0.13400
C625        C  0.07325531  0.70459405  0.19483014     0.03300
C626        C  0.08617108  0.67404657  0.19328726    -0.25500
H627        H  0.06785444  0.54983211  0.15661494     0.08400
H628        H  0.10363963  0.61110895  0.18771525     0.12000
H629        H  0.99000881  0.59836052  0.12525529     0.11900
H630        H  0.99717137  0.66478513  0.14506959     0.11700
H631        H  0.03049628  0.72393995  0.17808306     0.12200
H632        H  0.11080247  0.67631528  0.20683626     0.14200
O633        O  0.59103896  0.32555085  0.28767244    -0.82400
C634        C  0.71838400  0.35631355  0.20800317     0.96900
O635        O  0.71611023  0.38376287  0.22278970    -0.71500
O636        O  0.64176568  0.38281375  0.21932128    -0.75100
Al637      Al  0.67500315  0.38069048  0.24887419     1.49000
C638        C  0.60110239  0.36549436  0.21940478     0.92200
O639        O  0.57664773  0.26365836  0.22220543    -0.81400
O640        O  0.65196053  0.26797089  0.28096203    -0.74900
Al641      Al  0.58751544  0.29602474  0.25483876     1.90100
O642        O  0.62558193  0.24601933  0.22852534    -0.74000
O643        O  0.72348256  0.33497815  0.26415967    -0.73800
O644        O  0.69393876  0.31678067  0.21220976    -0.79500
O645        O  0.71151008  0.38535179  0.27834355    -0.77700
O646        O  0.64459371  0.32368700  0.25021335    -1.13800
O647        O  0.64092331  0.38988049  0.27479345    -0.73000
C648        C  0.61065885  0.36584195  0.29056018     0.97700
C649        C  0.59222106  0.24031104  0.21658727     0.94100
Al650      Al  0.67134546  0.29397816  0.24678339     1.55600
O651        O  0.57828567  0.33473940  0.23489149    -0.77700
C652        C  0.73362362  0.36735513  0.27884165     0.98300
C653        C  0.61276750  0.24573538  0.28754764     0.93100
O654        O  0.58450147  0.25087043  0.27609082    -0.83000
C655        C  0.47804075  0.48844925  0.08080558     0.85900
C656        C  0.50198160  0.46618084  0.09098154    -0.54400
C657        C  0.50482654  0.46563781  0.11840251     0.08800
C658        C  0.48320989  0.48718480  0.13319813     0.19700
C659        C  0.93341424  0.46369784  0.09511324    -0.55100
C660        C  0.93628094  0.46363096  0.12253712     0.08900
C661        C  0.50226170  0.03523987  0.09444886    -0.54600
C662        C  0.50477508  0.03387094  0.12180351     0.09500
H663        H  0.51561262  0.45226380  0.07760285     0.14000
H664        H  0.48567706  0.48718346  0.15550974    -0.00300
H665        H  0.90232507  0.44962136  0.08529640     0.14300
H666        H  0.51602135  0.06513052  0.08347816     0.14100
C667        C  0.98756113  0.99577724  0.41805048     0.85900
C668        C  0.50995581  0.03821241  0.40278286    -0.54400
C669        C  0.50448743  0.03365449  0.37547955     0.08800
C670        C  0.97790499  0.98699423  0.36577334     0.19700
C671        C  0.93603079  0.47211067  0.40984807    -0.55100
C672        C  0.93157416  0.46763959  0.38237336     0.08900
C673        C  0.50307940  0.47014431  0.40708937    -0.54600
C674        C  0.49850220  0.46564762  0.37980881     0.09500
H675        H  0.52724743  0.06930337  0.41281942     0.14000
H676        H  0.97445294  0.98346631  0.34351114    -0.00300
H677        H  0.90862880  0.46011676  0.42341227     0.14300
H678        H  0.51723848  0.45475530  0.41808316     0.14100
O679        O  0.92755151  0.18618173  0.77596043    -0.82400
C680        C  0.76954812  0.12958178  0.71951642     0.96900
O681        O  0.78081926  0.10762265  0.73302725    -0.71500
O682        O  0.85387643  0.11070187  0.71995675    -0.75100
Al683      Al  0.83110192  0.11962921  0.75282056     1.49000
C684        C  0.89236599  0.13149042  0.71162619     0.92200
O685        O  0.91169386  0.23405338  0.71237171    -0.81400
O686        O  0.85968145  0.23955072  0.78020183    -0.74900
Al687      Al  0.91517550  0.20768555  0.74447135     1.90100
O688        O  0.86088644  0.24644215  0.72500378    -0.74000
O689        O  0.78523676  0.16579120  0.77566100    -0.73800
O690        O  0.79090752  0.17006943  0.72083807    -0.79500
O691        O  0.80471514  0.11987416  0.78637851    -0.77700
O692        O  0.85784731  0.17672487  0.74913310    -1.13800
O693        O  0.87505982  0.11937953  0.77350394    -0.73000
C694        C  0.91038002  0.14784403  0.78353822     0.97700
C695        C  0.89121879  0.25329883  0.70927869     0.94100
Al696      Al  0.82709607  0.20310066  0.75034402     1.55600
O697        O  0.91890554  0.16747389  0.72172065    -0.77700
C698        C  0.78126863  0.13592121  0.79032793     0.98300
C699        C  0.90041310  0.26232625  0.78148695     0.93100
O700        O  0.92359904  0.25456968  0.76610683    -0.83000
C701        C  0.52288147  0.51286751  0.92048719     0.85900
C702        C  0.99610657  0.46616661  0.90980076    -0.54400
C703        C  0.99281088  0.46295468  0.88243655     0.08800
C704        C  0.51637001  0.50597753  0.86805187     0.19700
C705        C  0.56838043  0.03784727  0.90536931    -0.55100
C706        C  0.56486227  0.03539544  0.87788634     0.08900
C707        C  0.00126310  0.03918111  0.90842988    -0.54600
C708        C  0.99766547  0.03598669  0.88105334     0.09500
H709        H  0.98105474  0.43828669  0.92273944     0.14000
H710        H  0.51355642  0.50295386  0.84572102    -0.00300
H711        H  0.59960831  0.05550686  0.91506063     0.14300
H712        H  0.98805532  0.05493885  0.92050302     0.14100
C713        C  0.52071148  0.50997492  0.58165831     0.85900
C714        C  0.99270307  0.02222800  0.59486983    -0.54400
C715        C  0.99395145  0.02094556  0.62237712     0.08800
C716        C  0.52234572  0.50415912  0.63408802     0.19700
C717        C  0.56450529  0.03189980  0.59232131    -0.55100
C718        C  0.56620849  0.03123961  0.61984607     0.08900
C719        C  0.00270694  0.46438097  0.59186110    -0.54600
C720        C  0.00395656  0.46161355  0.61911737     0.09500
H721        H  0.97359552  0.03330388  0.58491968     0.14000
H722        H  0.52309454  0.50164422  0.65636104    -0.00300
H723        H  0.59303911  0.04960130  0.57986951     0.14300
H724        H  0.99030478  0.43643463  0.57866037     0.14100
C725        C  0.92266098  0.29950974  0.80031751    -0.05900
C726        C  0.96781361  0.32627137  0.79832747    -0.05800
C727        C  0.99011832  0.36280916  0.81442378    -0.24000
C728        C  0.96797907  0.37342926  0.83315037     0.18300
C729        C  0.92280745  0.34635239  0.83621839     0.15500
C730        C  0.90024956  0.30954631  0.81960867    -0.19000
C731        C  0.90123621  0.35704408  0.85564154    -0.20800
C732        C  0.92415597  0.39440186  0.87141730    -0.13400
C733        C  0.96871743  0.42180882  0.86765175     0.03300
C734        C  0.99042616  0.41109351  0.84860333    -0.25500
H735        H  0.98617569  0.31947870  0.78385272     0.08400
H736        H  0.02475209  0.38302036  0.81201725     0.12000
H737        H  0.86556662  0.28910828  0.82154444     0.11900
H738        H  0.86671274  0.33677972  0.85846278     0.11700
H739        H  0.90699188  0.40257339  0.88601469     0.12200
H740        H  0.02488641  0.43225738  0.84581437     0.14200
C741        C  0.60286782  0.05761472  0.85968520    -0.05900
C742        C  0.60041525  0.07848211  0.83668514    -0.05800
C743        C  0.63576595  0.09976769  0.81942712    -0.24000
C744        C  0.67415394  0.10013136  0.82463143     0.18300
C745        C  0.67725282  0.07945108  0.84773475     0.15500
C746        C  0.64175343  0.05877116  0.86532041    -0.19000
C747        C  0.71544444  0.07899255  0.85243179    -0.20800
C748        C  0.74968528  0.09771805  0.83399503    -0.13400
C749        C  0.74676093  0.11824457  0.81097579     0.03300
C750        C  0.70908093  0.11993940  0.80672106    -0.25500
H751        H  0.57127241  0.07892313  0.83220982     0.08400
H752        H  0.63290272  0.11556037  0.80182675     0.12000
H753        H  0.64397502  0.04262732  0.88294351     0.11900
H754        H  0.71845730  0.06332153  0.87004006     0.11700
H755        H  0.77840117  0.09609068  0.83767163     0.12200
H756        H  0.70623039  0.13522341  0.78883183     0.14200
C757        C  0.93169850  0.13523529  0.80395171    -0.05900
C758        C  0.97320100  0.16468609  0.81376381    -0.05800
C759        C  0.99391873  0.15167556  0.83186001    -0.24000
C760        C  0.97354081  0.10895144  0.84040473     0.18300
C761        C  0.93150909  0.07928199  0.83099199     0.15500
C762        C  0.91088860  0.09263505  0.81303435    -0.19000
C763        C  0.91112822  0.03640493  0.83916384    -0.20800
C764        C  0.93259776  0.02276622  0.85599525    -0.13400
C765        C  0.97434544  0.05187011  0.86524445     0.03300
C766        C  0.99468988  0.09504493  0.85767330    -0.25500
H767        H  0.98995299  0.19764891  0.80712019     0.08400
H768        H  0.02611862  0.17486378  0.83885010     0.12000
H769        H  0.87883736  0.06949745  0.80574415     0.11900
H770        H  0.87895535  0.01325572  0.83209757     0.11700
H771        H  0.93171691  0.48522582  0.84712168     0.12200
H772        H  0.02725085  0.11730840  0.86459125     0.14200
C773        C  0.90381625  0.28600197  0.68813637    -0.05900
C774        C  0.87412530  0.29754731  0.67934196    -0.05800
C775        C  0.88720236  0.33259559  0.66243248    -0.24000
C776        C  0.93044076  0.35730649  0.65445983     0.18300
C777        C  0.96031321  0.34514916  0.66244783     0.15500
C778        C  0.94661558  0.30912002  0.67884764    -0.19000
C779        C  0.00379377  0.37042327  0.65492355    -0.20800
C780        C  0.01781612  0.40812638  0.64046088    -0.13400
C781        C  0.98849937  0.42068290  0.63300542     0.03300
C782        C  0.94471193  0.39486846  0.63954493    -0.25500
H783        H  0.84091656  0.28003882  0.68612856     0.08400
H784        H  0.86383175  0.34128985  0.65640400     0.12000
H785        H  0.96982814  0.30069382  0.68569851     0.11900
H786        H  0.02713421  0.36163844  0.66083025     0.11700
H787        H  0.05165621  0.42783247  0.63533822     0.12200
H788        H  0.92216985  0.40479953  0.63374698     0.14200
C789        C  0.72948766  0.10674702  0.70330760    -0.05900
C790        C  0.69668608  0.06585304  0.71143983    -0.05800
C791        C  0.65814484  0.04345975  0.69699678    -0.24000
C792        C  0.65178323  0.06120663  0.67383278     0.18300
C793        C  0.68454914  0.10223208  0.66528424     0.15500
C794        C  0.72304846  0.12507522  0.68029754    -0.19000
C795        C  0.67825189  0.11943787  0.64176869    -0.20800
C796        C  0.64000407  0.09627267  0.62692504    -0.13400
C797        C  0.60710608  0.05562982  0.63542736     0.03300
C798        C  0.61329121  0.03838596  0.65900352    -0.25500
H799        H  0.70062664  0.05131432  0.72931726     0.08400
H800        H  0.63338960  0.01212740  0.70388567     0.12000
H801        H  0.74815355  0.15657765  0.67386985     0.11900
H802        H  0.70291222  0.15076122  0.63482670     0.11700
H803        H  0.63587775  0.11053445  0.60898905     0.12200
H804        H  0.59480728  0.50164646  0.66061929     0.14200
C805        C  0.90810661  0.11411907  0.69029261    -0.05900
C806        C  0.93492062  0.14140474  0.66989050    -0.05800
C807        C  0.95526498  0.12778651  0.65165550    -0.24000
C808        C  0.95030684  0.08705189  0.65403942     0.18300
C809        C  0.92351343  0.05931327  0.67457887     0.15500
C810        C  0.90178475  0.07268465  0.69222631    -0.19000
C811        C  0.92022542  0.01934749  0.67769113    -0.20800
C812        C  0.94356183  0.00721844  0.66087018    -0.13400
C813        C  0.96967166  0.03429143  0.64021710     0.03300
C814        C  0.97259897  0.07405505  0.63671338    -0.25500
H815        H  0.94065191  0.17367188  0.66836000     0.08400
H816        H  0.97591266  0.14960447  0.63620246     0.12000
H817        H  0.88207190  0.05194564  0.70838470     0.11900
H818        H  0.90013461  0.99775423  0.69339235     0.11700
H819        H  0.94503388  0.47989538  0.66713227     0.12200
H820        H  0.49245212  0.09495919  0.62085643     0.14200
C821        C  0.52155776  0.51091081  0.55088260    -0.05900
C822        C  0.04632170  0.49708864  0.53733230    -0.05800
C823        C  0.04533665  0.49289083  0.50935141    -0.24000
C824        C  0.01880669  0.50225795  0.49398622     0.18300
C825        C  0.49779974  0.01610449  0.50529473     0.15500
C826        C  0.49918668  0.02092081  0.53352148    -0.19000
C827        C  0.47745495  0.03215924  0.48924438    -0.20800
C828        C  0.47465933  0.02558459  0.46131146    -0.13400
C829        C  0.99233846  0.00274689  0.44861508     0.03300
C830        C  0.01574308  0.49547738  0.46597848    -0.25500
H831        H  0.06609024  0.48819989  0.54871352     0.08400
H832        H  0.06451965  0.48120350  0.49979402     0.12000
H833        H  0.48454563  0.03765885  0.54245343     0.11900
H834        H  0.46326114  0.04940803  0.49830768     0.11700
H835        H  0.45848585  0.03810443  0.44944731     0.12200
H836        H  0.03564222  0.48455209  0.45678423     0.14200
C837        C  0.47827937  0.49118174  0.05009436    -0.05900
C838        C  0.94007646  0.47502684  0.03450138    -0.05800
C839        C  0.94207327  0.47776683  0.00642749    -0.24000
C840        C  0.98181086  0.49565498  0.99315132     0.18300
C841        C  0.52168728  0.01479710  0.00814334     0.15500
C842        C  0.51963816  0.01229068  0.03638386    -0.19000
C843        C  0.56124376  0.03148274  0.99471154    -0.20800
C844        C  0.56295644  0.03286693  0.96654373    -0.13400
C845        C  0.52352388  0.51477615  0.95128354     0.03300
C846        C  0.98376296  0.49731341  0.96493344    -0.25500
H847        H  0.90855966  0.46110021  0.04348196     0.08400
H848        H  0.91238259  0.46557808  0.99506825     0.12000
H849        H  0.54914755  0.02394820  0.04788977     0.11900
H850        H  0.59090550  0.04297033  0.00599348     0.11700
H851        H  0.59415512  0.04500086  0.95736673     0.12200
H852        H  0.95414946  0.48460199  0.95339874     0.14200
C853        C  0.51267559  0.44037051  0.36381854    -0.05900
C854        C  0.48202487  0.40163170  0.35154045    -0.05800
C855        C  0.49511403  0.37750965  0.33635725    -0.24000
C856        C  0.53917998  0.39221801  0.33282098     0.18300
C857        C  0.57027301  0.43134389  0.34512224     0.15500
C858        C  0.55678228  0.45482787  0.36090584    -0.19000
C859        C  0.61430040  0.44688239  0.34079371    -0.20800
C860        C  0.62739881  0.42468880  0.32373014    -0.13400
C861        C  0.59683306  0.38588101  0.31135167     0.03300
C862        C  0.55269712  0.36928220  0.31647088    -0.25500
H863        H  0.94767615  0.38905707  0.35467033     0.08400
H864        H  0.97087092  0.34695977  0.32795988     0.12000
H865        H  0.58046287  0.48483862  0.37035588     0.06900
H866        H  0.63857096  0.47685851  0.34994749     0.11700
H867        H  0.66152360  0.43816845  0.31985954     0.12200
H868        H  0.52888945  0.33983910  0.30652029     0.14200
C869        C  0.77271241  0.38421240  0.29573557    -0.05900
C870        C  0.80677051  0.37902362  0.28663150    -0.05800
C871        C  0.84383057  0.39338394  0.30216308    -0.24000
C872        C  0.84743998  0.41284301  0.32730134     0.18300
C873        C  0.81331811  0.41791807  0.33695041     0.15500
C874        C  0.77615122  0.40389523  0.32094139    -0.19000
C875        C  0.81721875  0.43699277  0.36237746    -0.20800
C876        C  0.85499482  0.45195526  0.37765582    -0.13400
C877        C  0.88953198  0.44805943  0.36778727     0.03300
C878        C  0.88493737  0.42765623  0.34275327    -0.25500
H879        H  0.80486192  0.36407209  0.26724226     0.08400
H880        H  0.86971496  0.38927844  0.29448159     0.12000
H881        H  0.74978978  0.40755837  0.32821047     0.11900
H882        H  0.79137738  0.44098312  0.37025240     0.11700
H883        H  0.85767742  0.46783264  0.39677037     0.12200
H884        H  0.91062954  0.42333285  0.33506168     0.14200
C885        C  0.51921840  0.07047182  0.35719515    -0.05900
C886        C  0.49180434  0.06833902  0.33646324    -0.05800
C887        C  0.50436040  0.10301782  0.31943017    -0.24000
C888        C  0.54481437  0.14026344  0.32263641     0.18300
C889        C  0.57298322  0.14273014  0.34324861     0.15500
C890        C  0.55977873  0.10791634  0.36063836    -0.19000
C891        C  0.61398448  0.17974165  0.34580309    -0.20800
C892        C  0.62710915  0.21365693  0.32782295    -0.13400
C893        C  0.59900861  0.21142858  0.30750963     0.03300
C894        C  0.55773806  0.17479456  0.30524470    -0.25500
H895        H  0.96100521  0.04008967  0.33339008     0.08400
H896        H  0.48246956  0.10064907  0.30368872     0.12000
H897        H  0.58122086  0.10961253  0.37648940     0.11900
H898        H  0.63607398  0.18217494  0.36141567     0.11700
H899        H  0.65912869  0.24165287  0.32980358     0.12200
H900        H  0.53613303  0.17255524  0.28932006     0.14200
C901        C  0.57872533  0.38147414  0.20246947    -0.05900
C902        C  0.53814292  0.37401888  0.21093611    -0.05800
C903        C  0.51569164  0.38847839  0.19590291    -0.24000
C904        C  0.53305960  0.41036882  0.17185767     0.18300
C905        C  0.57346570  0.41753529  0.16270196     0.15500
C906        C  0.59638584  0.40339748  0.17825244    -0.19000
C907        C  0.59005792  0.43880531  0.13822502    -0.20800
C908        C  0.56727514  0.45348186  0.12334820    -0.13400
C909        C  0.52771013  0.44743022  0.13281658     0.03300
C910        C  0.51067800  0.42545789  0.15697584    -0.25500
H911        H  0.52385794  0.35738591  0.22956369     0.08400
H912        H  0.48473557  0.38262550  0.20315954     0.12000
H913        H  0.62744591  0.40895518  0.17143319     0.11900
H914        H  0.62081415  0.44446751  0.13072726     0.11700
H915        H  0.58117427  0.47064832  0.10483564     0.12200
H916        H  0.47982393  0.41997189  0.16420190     0.14200
C917        C  0.75281032  0.37102500  0.18745209    -0.05900
C918        C  0.74989396  0.34476563  0.16552374    -0.05800
C919        C  0.78474893  0.35791463  0.14776915    -0.24000
C920        C  0.82343934  0.39697588  0.15213962     0.18300
C921        C  0.82653128  0.42326645  0.17429733     0.15500
C922        C  0.79111165  0.41051903  0.19141509    -0.19000
C923        C  0.86534199  0.46157301  0.17941466    -0.20800
C924        C  0.90096278  0.47388184  0.16277347    -0.13400
C925        C  0.89832869  0.44848846  0.14048046     0.03300
C926        C  0.85930676  0.41004754  0.13510205    -0.25500
H927        H  0.72079265  0.31398781  0.16225004     0.08400
H928        H  0.78177034  0.33718743  0.13098365     0.12000
H929        H  0.79407698  0.43060973  0.20860087     0.11900
H930        H  0.86821177  0.48197692  0.19637266     0.11700
H931        H  0.93047924  0.00686402  0.16629583     0.12200
H932        H  0.85714825  0.39015748  0.11800064     0.14200
C933        C  0.52679188  0.07206912  0.13944828    -0.05900
C934        C  0.55669220  0.07447379  0.15838795    -0.05800
C935        C  0.57592355  0.10853465  0.17669069    -0.24000
C936        C  0.56486649  0.14031948  0.17667568     0.18300
C937        C  0.53465241  0.13828645  0.15774461     0.15500
C938        C  0.51613342  0.10429085  0.13889128    -0.19000
C939        C  0.52307338  0.16984233  0.15845140    -0.20800
C940        C  0.54125250  0.20298594  0.17775977    -0.13400
C941        C  0.57165532  0.20529622  0.19637695     0.03300
C942        C  0.58326186  0.17378395  0.19559172    -0.25500
H943        H  0.56509321  0.04977985  0.15902983     0.08400
H944        H  0.59896090  0.10966223  0.19113710     0.12000
H945        H  0.49246620  0.10201380  0.12451172     0.11900
H946        H  0.49983203  0.16875156  0.14419977     0.11700
H947        H  0.53192376  0.22700843  0.17795893     0.12200
H948        H  0.60638460  0.17492664  0.20999594     0.14200
O949        O  0.59109644  0.82452306  0.28617649    -0.82400
C950        C  0.72051436  0.85550470  0.20861302     0.96900
O951        O  0.71761973  0.88292108  0.22299310    -0.71500
O952        O  0.64406427  0.88328853  0.21878539    -0.75100
Al953      Al  0.67647557  0.88005356  0.24863970     1.49000
C954        C  0.60344650  0.86640364  0.21849824     0.92200
O955        O  0.57840505  0.76366511  0.22065492    -0.81400
O956        O  0.65030708  0.76608249  0.28098187    -0.74900
Al957      Al  0.58820520  0.79550341  0.25339550     1.90100
O958        O  0.62661175  0.74532133  0.22792860    -0.74000
O959        O  0.72300431  0.83272721  0.26546349    -0.73800
O960        O  0.69648884  0.81594660  0.21298633    -0.79500
O961        O  0.71266474  0.88458316  0.27843425    -0.77700
O962        O  0.64550546  0.82289019  0.24971050    -1.13800
O963        O  0.64225591  0.88897208  0.27420954    -0.73000
C964        C  0.61145012  0.86473656  0.28952799     0.97700
C965        C  0.59383149  0.74004384  0.21542969     0.94100
Al966      Al  0.67174984  0.79263209  0.24708612     1.55600
O967        O  0.58008923  0.83499024  0.23339849    -0.77700
C968        C  0.73384717  0.86566817  0.27971011     0.98300
C969        C  0.61082497  0.74406940  0.28696127     0.93100
O970        O  0.58332680  0.74940493  0.27467400    -0.83000
C971        C  0.47935274  0.99068021  0.08069686     0.85900
C972        C  0.50368756  0.96870001  0.09082670    -0.54400
C973        C  0.50624877  0.96769108  0.11827967     0.08800
C974        C  0.48387316  0.98848686  0.13308258     0.19700
C975        C  0.93486555  0.96657649  0.09513414    -0.55100
C976        C  0.93748119  0.96599866  0.12254161     0.08900
C977        C  0.50160160  0.53324251  0.09421449    -0.54600
C978        C  0.50450127  0.53237642  0.12155787     0.09500
H979        H  0.51778456  0.95533598  0.07738438     0.14000
H980        H  0.48585197  0.98807283  0.15540176    -0.00300
H981        H  0.90384776  0.95223433  0.08518330     0.14300
H982        H  0.51559142  0.56294471  0.08301950     0.14100
C983        C  0.98342752  0.49597017  0.41978566     0.85900
C984        C  0.50592336  0.53870487  0.40461857    -0.54400
C985        C  0.50108148  0.53418119  0.37731502     0.08800
C986        C  0.97500651  0.48704022  0.36747143     0.19700
C987        C  0.94004352  0.97355331  0.40846952    -0.55100
C988        C  0.93505084  0.96910341  0.38106134     0.08900
C989        C  0.50459335  0.96865679  0.40508255    -0.54600
C990        C  0.49937077  0.96415839  0.37788816     0.09500
H991        H  0.52213851  0.56979368  0.41471179     0.14000
H992        H  0.97254868  0.48399970  0.34518401    -0.00300
H993        H  0.91292734  0.96272500  0.42217713     0.14300
H994        H  0.51922896  0.95337086  0.41561643     0.14100
O995        O  0.92554279  0.68755773  0.78139988    -0.82400
C996        C  0.77132534  0.62619512  0.71949008     0.96900
O997        O  0.78242752  0.60507614  0.73390602    -0.71500
O998        O  0.85743341  0.61322579  0.72203597    -0.75100
Al999      Al  0.83251767  0.61912609  0.75441591     1.49000
C1000       C  0.89669481  0.63450644  0.71546602     0.92200
O1001       O  0.91311612  0.73493754  0.71627362    -0.81400
O1002       O  0.85415030  0.73772097  0.78160342    -0.74900
Al1003     Al  0.91499353  0.70883580  0.74889892     1.90100
O1004       O  0.85914600  0.74412076  0.72628160    -0.74000
O1005       O  0.78211917  0.66108817  0.77603332    -0.73800
O1006       O  0.79141096  0.66662071  0.72109022    -0.79500
O1007       O  0.80425578  0.61731004  0.78726436    -0.77700
O1008       O  0.85747181  0.67612882  0.75155758    -1.13800
O1009       O  0.87665573  0.61998008  0.77542612    -0.73000
C1010       C  0.91024687  0.64859203  0.78706624     0.97700
C1011       C  0.89142756  0.75263019  0.71186978     0.94100
Al1012     Al  0.82468343  0.70021021  0.75133380     1.55600
O1013       O  0.92232116  0.66966851  0.72695138    -0.77700
C1014       C  0.77882619  0.63122175  0.79056011     0.98300
C1015       C  0.89458922  0.76280864  0.78300433     0.93100
O1016       O  0.91976295  0.75518212  0.76960478    -0.83000
C1017       C  0.52456096  0.01690024  0.92026405     0.85900
C1018       C  0.99928860  0.97094600  0.90936055    -0.54400
C1019       C  0.99535048  0.96777463  0.88191345     0.08800
C1020       C  0.51776835  0.01159083  0.86779042     0.19700
C1021       C  0.56668816  0.53172305  0.90567004    -0.55100
C1022       C  0.56301473  0.52848872  0.87826243     0.08900
C1023       C  0.00166251  0.53612976  0.90794269    -0.54600
C1024       C  0.99803357  0.53219560  0.88050833     0.09500
H1025       H  0.98568547  0.94315219  0.92234246     0.14000
H1026       H  0.51439682  0.00970753  0.84551857    -0.00300
H1027       H  0.59811936  0.54884917  0.91515940     0.14300
H1028       H  0.98929830  0.55296069  0.91970572     0.14100
C1029       C  0.51881969  0.00492298  0.58044054     0.85900
C1030       C  0.99406449  0.52650814  0.59687962    -0.54400
C1031       C  0.99508388  0.52337059  0.62431729     0.08800
C1032       C  0.52163694  0.00316524  0.63303119     0.19700
C1033       C  0.56605173  0.53636673  0.59410196    -0.55100
C1034       C  0.56702079  0.53324183  0.62146581     0.08900
C1035       C  0.00099196  0.95975899  0.59207777    -0.54600
C1036       C  0.00291578  0.95896741  0.61941833     0.09500
H1037       H  0.97601696  0.53930748  0.58753644     0.14000
H1038       H  0.52243181  0.00221631  0.65537917    -0.00300
H1039       H  0.59495135  0.55561371  0.58221951     0.14300
H1040       H  0.98832806  0.93087965  0.57972079     0.14100
C1041       C  0.91425891  0.80372675  0.79839644    -0.05900
C1042       C  0.95023076  0.83949293  0.78695639    -0.05800
C1043       C  0.97225406  0.87844419  0.80081301    -0.24000
C1044       C  0.95915796  0.88254729  0.82667261     0.18300
C1045       C  0.92263299  0.84717579  0.83846427     0.15500
C1046       C  0.89986169  0.80787066  0.82406505    -0.19000
C1047       C  0.91024757  0.85177808  0.86457215    -0.20800
C1048       C  0.93384896  0.89073781  0.87874403    -0.13400
C1049       C  0.97030764  0.92600363  0.86711005     0.03300
C1050       C  0.98254490  0.92144956  0.84095854    -0.25500
H1051       H  0.96154938  0.83723906  0.76707036     0.08400
H1052       H  0.99998096  0.90523490  0.79140310     0.12000
H1053       H  0.87222815  0.78044973  0.83307602     0.11900
H1054       H  0.88239953  0.82525882  0.87406720     0.11700
H1055       H  0.92308478  0.89337531  0.89869700     0.12200
H1056       H  0.01093043  0.94786191  0.83183084     0.14200
C1057       C  0.60055934  0.55082742  0.86011787    -0.05900
C1058       C  0.60157163  0.57969897  0.84114454    -0.05800
C1059       C  0.63749257  0.60250458  0.82452647    -0.24000
C1060       C  0.67265072  0.59614207  0.82629447     0.18300
C1061       C  0.67155742  0.56654941  0.84505197     0.15500
C1062       C  0.63570878  0.54446835  0.86212705    -0.19000
C1063       C  0.70619240  0.55933391  0.84623639    -0.20800
C1064       C  0.74147783  0.58098765  0.82891095    -0.13400
C1065       C  0.74312607  0.61076225  0.81035313     0.03300
C1066       C  0.70856301  0.61837358  0.80933745    -0.25500
H1067       H  0.57483283  0.58522806  0.83956763     0.08400
H1068       H  0.63769519  0.62495652  0.81022929     0.12000
H1069       H  0.63481365  0.52199683  0.87670183     0.11900
H1070       H  0.70576310  0.53654430  0.86033772     0.11700
H1071       H  0.76739030  0.57418602  0.82990970     0.12200
H1072       H  0.70897261  0.64067901  0.79481571     0.14200
C1073       C  0.93149739  0.63502225  0.80691429    -0.05900
C1074       C  0.96542742  0.66464913  0.82354059    -0.05800
C1075       C  0.98457873  0.65060001  0.84221490    -0.24000
C1076       C  0.97033393  0.60673887  0.84437840     0.18300
C1077       C  0.93673223  0.57694912  0.82735183     0.15500
C1078       C  0.91761283  0.59119290  0.80895215    -0.19000
C1079       C  0.92284371  0.53324323  0.82877062    -0.20800
C1080       C  0.94236863  0.51907135  0.84669986    -0.13400
C1081       C  0.97559860  0.54815273  0.86379184     0.03300
C1082       C  0.98935055  0.59202603  0.86284805    -0.25500
H1083       H  0.97692602  0.69859107  0.82223960     0.08400
H1084       H  0.01054130  0.67400102  0.85490204     0.12000
H1085       H  0.89193891  0.56789683  0.79601476     0.11900
H1086       H  0.89724995  0.51007252  0.81575906     0.11700
H1087       H  0.91687705  0.98930868  0.86156245     0.12200
H1088       H  0.01562441  0.61458503  0.87571531     0.14200
C1089       C  0.90462822  0.78526757  0.69059326    -0.05900
C1090       C  0.87432967  0.79464889  0.67996123    -0.05800
C1091       C  0.88720406  0.82892321  0.66241893    -0.24000
C1092       C  0.93081605  0.85509578  0.65563406     0.18300
C1093       C  0.96153004  0.84540410  0.66566639     0.15500
C1094       C  0.94810738  0.81008812  0.68271959    -0.19000
C1095       C  0.00535170  0.87230677  0.65936922    -0.20800
C1096       C  0.01871807  0.90915509  0.64407160    -0.13400
C1097       C  0.98842938  0.91913525  0.63447055     0.03300
C1098       C  0.94445129  0.89166724  0.63980643    -0.25500
H1099       H  0.84064896  0.77588251  0.68566236     0.08400
H1100       H  0.86323911  0.83579984  0.65487053     0.12000
H1101       H  0.97180621  0.80340408  0.69102362     0.11900
H1102       H  0.02936810  0.86544555  0.66683583     0.11700
H1103       H  0.05274367  0.93012438  0.63988200     0.12200
H1104       H  0.92115626  0.89958783  0.63235957     0.14200
C1105       C  0.73300644  0.60260632  0.70179478    -0.05900
C1106       C  0.70463669  0.55837200  0.70551816    -0.05800
C1107       C  0.66640607  0.53607909  0.69070744    -0.24000
C1108       C  0.65595904  0.55742966  0.67159799     0.18300
C1109       C  0.68488862  0.60156678  0.66698240     0.15500
C1110       C  0.72307645  0.62394801  0.68222158    -0.19000
C1111       C  0.67490023  0.62262908  0.64734612    -0.20800
C1112       C  0.63665085  0.60025528  0.63250352    -0.13400
C1113       C  0.60741398  0.55665665  0.63732270     0.03300
C1114       C  0.61709936  0.53541213  0.65702718    -0.25500
H1115       H  0.71140551  0.54107227  0.72047448     0.08400
H1116       H  0.64484377  0.50221922  0.69437378     0.12000
H1117       H  0.74479651  0.65793111  0.67901405     0.11900
H1118       H  0.69665872  0.65636923  0.64345371     0.11700
H1119       H  0.62954290  0.61717888  0.61745909     0.12200
H1120       H  0.58854774  0.00681171  0.66555163     0.14200
C1121       C  0.91383617  0.61811043  0.69465383    -0.05900
C1122       C  0.93960724  0.64515116  0.67390982    -0.05800
C1123       C  0.95912330  0.63122790  0.65527270    -0.24000
C1124       C  0.95429757  0.59053395  0.65767872     0.18300
C1125       C  0.92888678  0.56331716  0.67881085     0.15500
C1126       C  0.90801727  0.57695942  0.69684851    -0.19000
C1127       C  0.92577490  0.52344806  0.68192695    -0.20800
C1128       C  0.94770852  0.51072877  0.66432933    -0.13400
C1129       C  0.97219149  0.53715805  0.64298120     0.03300
C1130       C  0.97519929  0.57697944  0.63966616    -0.25500
H1131       H  0.94470296  0.67716293  0.67222334     0.08400
H1132       H  0.97875444  0.65262307  0.63935366     0.12000
H1133       H  0.88892202  0.55648041  0.71328046     0.11900
H1134       H  0.90678953  0.50234379  0.69812575     0.11700
H1135       H  0.94079026  0.97636046  0.66374805     0.12200
H1136       H  0.49503394  0.59751113  0.62346958     0.14200
C1137       C  0.51903051  0.00397815  0.54963350    -0.05900
C1138       C  0.03990347  0.98464241  0.53664075    -0.05800
C1139       C  0.03853610  0.97964847  0.50869340    -0.24000
C1140       C  0.01703894  0.99459714  0.49284754     0.18300
C1141       C  0.49557285  0.51837254  0.50691980     0.15500
C1142       C  0.49709105  0.52312305  0.53517510    -0.19000
C1143       C  0.47024387  0.52906521  0.49124203    -0.20800
C1144       C  0.46714586  0.52199461  0.46333718    -0.13400
C1145       C  0.98803106  0.50341246  0.45032864     0.03300
C1146       C  0.01426986  0.98818747  0.46481759    -0.25500
H1147       H  0.05632838  0.97223935  0.54836755     0.08400
H1148       H  0.05388837  0.96358051  0.49950967     0.12000
H1149       H  0.47806394  0.53499071  0.54447378     0.11900
H1150       H  0.45241500  0.54245043  0.50057978     0.11700
H1151       H  0.44729103  0.53053835  0.45176483     0.12200
H1152       H  0.02960043  0.97195740  0.45621748     0.14200
C1153       C  0.47972416  0.99397018  0.04997488    -0.05900
C1154       C  0.94190412  0.98109882  0.03482443    -0.05800
C1155       C  0.94380432  0.98395457  0.00673045    -0.24000
C1156       C  0.98331826  0.00044186  0.99330551     0.18300
C1157       C  0.52028760  0.51228587  0.00831243     0.15500
C1158       C  0.51824584  0.50992385  0.03654088    -0.19000
C1159       C  0.55991747  0.52955864  0.99491773    -0.20800
C1160       C  0.56158210  0.53064939  0.96675572    -0.13400
C1161       C  0.52501731  0.01781936  0.95109344     0.03300
C1162       C  0.98515636  0.00188102  0.96504709    -0.25500
H1163       H  0.91061125  0.96853096  0.04394507     0.08400
H1164       H  0.91419978  0.97294145  0.99546994     0.12000
H1165       H  0.54780439  0.52212579  0.04807798     0.11900
H1166       H  0.58965640  0.54169039  0.00621995     0.11700
H1167       H  0.59290619  0.54340416  0.95764418     0.12200
H1168       H  0.95554887  0.98980948  0.95358327     0.14200
C1169       C  0.51354358  0.93926672  0.36173192    -0.05900
C1170       C  0.48293904  0.90060070  0.34942794    -0.05800
C1171       C  0.49608448  0.87672449  0.33415473    -0.24000
C1172       C  0.54012830  0.89136505  0.33093030     0.18300
C1173       C  0.57120399  0.93026989  0.34347799     0.15500
C1174       C  0.55764813  0.95377257  0.35905358    -0.19000
C1175       C  0.61525414  0.94543399  0.33971279    -0.20800
C1176       C  0.62838564  0.92303959  0.32293139    -0.13400
C1177       C  0.59773587  0.88459640  0.31025229     0.03300
C1178       C  0.55362583  0.86839212  0.31478367    -0.25500
H1179       H  0.94932281  0.88902301  0.35179377     0.08400
H1180       H  0.97201591  0.84743226  0.32434864     0.12000
H1181       H  0.58124294  0.98365283  0.36868613     0.06900
H1182       H  0.63949276  0.97518703  0.34911269     0.11700
H1183       H  0.66255342  0.93612413  0.31943821     0.12200
H1184       H  0.52986741  0.83921548  0.30455046     0.14200
C1185       C  0.77269713  0.88187692  0.29699656    -0.05900
C1186       C  0.80326331  0.87009119  0.29035876    -0.05800
C1187       C  0.84032148  0.88427436  0.30583397    -0.24000
C1188       C  0.84751736  0.91019088  0.32858169     0.18300
C1189       C  0.81683981  0.92170822  0.33603996     0.15500
C1190       C  0.77969097  0.90791235  0.31994940    -0.19000
C1191       C  0.82416332  0.94687359  0.35938615    -0.20800
C1192       C  0.86177635  0.96099265  0.37476000    -0.13400
C1193       C  0.89295472  0.95073607  0.36680962     0.03300
C1194       C  0.88530702  0.92510322  0.34374919    -0.25500
H1195       H  0.79882121  0.85016701  0.27281512     0.08400
H1196       H  0.86343155  0.87499437  0.29995049     0.12000
H1197       H  0.75616587  0.91684218  0.32542511     0.11900
H1198       H  0.80106327  0.95596760  0.36560192     0.11700
H1199       H  0.86720524  0.98116762  0.39231183     0.12200
H1200       H  0.90896704  0.91697397  0.33736225     0.14200
C1201       C  0.51520739  0.57098871  0.35906138    -0.05900
C1202       C  0.48750512  0.56870811  0.33847099    -0.05800
C1203       C  0.50005474  0.60311843  0.32112935    -0.24000
C1204       C  0.54087806  0.64015013  0.32380654     0.18300
C1205       C  0.56910485  0.64280098  0.34444376     0.15500
C1206       C  0.55582462  0.60840722  0.36221264    -0.19000
C1207       C  0.61042166  0.67942877  0.34654667    -0.20800
C1208       C  0.62398926  0.71265586  0.32799692    -0.13400
C1209       C  0.59609251  0.71026104  0.30748371     0.03300
C1210       C  0.55427959  0.67414110  0.30578874    -0.25500
H1211       H  0.95519517  0.54025964  0.33590026     0.08400
H1212       H  0.47802774  0.60056830  0.30543207     0.12000
H1213       H  0.57742549  0.61023793  0.37799932     0.11900
H1214       H  0.63251479  0.68200692  0.36220064     0.11700
H1215       H  0.65631595  0.74025655  0.32966126     0.12200
H1216       H  0.53270161  0.67177609  0.28981498     0.14200
C1217       C  0.58163488  0.88366240  0.20197242    -0.05900
C1218       C  0.54164497  0.87722370  0.21095479    -0.05800
C1219       C  0.51926232  0.89216102  0.19625453    -0.24000
C1220       C  0.53602405  0.91354941  0.17197779     0.18300
C1221       C  0.57599075  0.92009740  0.16239341     0.15500
C1222       C  0.59893444  0.90551904  0.17764607    -0.19000
C1223       C  0.59197520  0.94096070  0.13771311    -0.20800
C1224       C  0.56892193  0.95554833  0.12297830    -0.13400
C1225       C  0.52961926  0.94985065  0.13274383     0.03300
C1226       C  0.51334202  0.92852200  0.15722098    -0.25500
H1227       H  0.52768387  0.86082845  0.22969814     0.08400
H1228       H  0.48870074  0.88687179  0.20389410     0.12000
H1229       H  0.62956631  0.91043985  0.17042942     0.11900
H1230       H  0.62241749  0.94624040  0.12988393     0.11700
H1231       H  0.58239371  0.97227572  0.10427883     0.12200
H1232       H  0.48271622  0.92322756  0.16475438     0.14200
C1233       C  0.75494330  0.87051015  0.18811395    -0.05900
C1234       C  0.75267316  0.84409181  0.16647847    -0.05800
C1235       C  0.78741019  0.85785018  0.14858613    -0.24000
C1236       C  0.82532992  0.89773331  0.15253004     0.18300
C1237       C  0.82777459  0.92422526  0.17440400     0.15500
C1238       C  0.79244670  0.91080734  0.19166694    -0.19000
C1239       C  0.86588159  0.96339789  0.17909430    -0.20800
C1240       C  0.90149110  0.97626645  0.16235827    -0.13400
C1241       C  0.89946301  0.95057896  0.14039038     0.03300
C1242       C  0.86111027  0.91139780  0.13536192    -0.25500
H1243       H  0.72415274  0.81276250  0.16351360     0.08400
H1244       H  0.78496310  0.83698827  0.13202188     0.12000
H1245       H  0.79488847  0.93109954  0.20861446     0.11900
H1246       H  0.86825093  0.98398125  0.19582362     0.11700
H1247       H  0.93040901  0.50393444  0.16700841     0.12200
H1248       H  0.85948604  0.89135918  0.11848940     0.14200
C1249       C  0.52739301  0.57103684  0.13872438    -0.05900
C1250       C  0.55954050  0.57497286  0.15632767    -0.05800
C1251       C  0.57990423  0.60984206  0.17402760    -0.24000
C1252       C  0.56760607  0.64074569  0.17482634     0.18300
C1253       C  0.53512243  0.63706782  0.15721530     0.15500
C1254       C  0.51558706  0.60241344  0.13889721    -0.19000
C1255       C  0.52223337  0.66759147  0.15872822    -0.20800
C1256       C  0.54111099  0.70120291  0.17766501    -0.13400
C1257       C  0.57354403  0.70508186  0.19511829     0.03300
C1258       C  0.58676140  0.67477965  0.19336252    -0.25500
H1259       H  0.56879475  0.55088005  0.15637875     0.08400
H1260       H  0.60469204  0.61220313  0.18745128     0.12000
H1261       H  0.49025187  0.59894059  0.12552884     0.11900
H1262       H  0.49726181  0.66520723  0.14548072     0.11700
H1263       H  0.53044651  0.72418833  0.17861293     0.12200
H1264       H  0.61154056  0.67713804  0.20681247     0.14200
loop_ 
_geom_bond_atom_site_label_1 
_geom_bond_atom_site_label_2 
_geom_bond_distance 
_geom_bond_site_symmetry_2 
_ccdc_geom_bond_type 
O1           C16   1.264       .  A
O1           Al9   1.907       .  S
C2           O12   1.261       .  A
C2            O3   1.266       .  A
C2          C285   1.479       .  S
O3           Al5   1.923       .  S
O4            C6   1.265       .  A
O4           Al5   1.924       .  S
Al5          O13   1.919       .  S
Al5          O15   1.915       .  S
Al5          O14   1.780       .  S
C6           O19   1.260       .  A
C6          C269   1.479       .  S
O7           C17   1.261       .  A
O7           Al9   1.908       .  S
O8           C21   1.261       .  A
O8          Al18   1.899       .  S
Al9          O22   1.914       .  S
Al9          O19   1.890       .  S
Al9          O14   1.784       .  S
O10          C17   1.261       .  A
O10         Al18   1.901       .  S
O11          C20   1.260       .  A
O11         Al18   1.900       .  S
O12         Al18   1.903       .  S
O13          C20   1.263       .  A
O14         Al18   1.783       .  S
O15          C16   1.264       .  A
C16         C229   1.479       .  S
C17         C309   1.477       .  S
C20         C237   1.476       .  S
C21          O22   1.264       .  A
C21         C261   1.472       .  S
C23          C24   1.542   1_655  S
C23         C345   1.541   1_655  S
C23         C659   1.548       .  S
C23         C205   1.527       .  S
C24          H31   1.086       .  S
C24          C25   1.365       .  D
C25          C26   1.536   1_455  S
C25         C277   1.483       .  S
C26         C346   1.530   1_655  S
C26         C660   1.536       .  S
C26          H32   1.111       .  S
C27         C655   1.549       .  S
C27          H33   1.081       .  S
C27          C28   1.365       .  D
C28         C658   1.536       .  S
C28         C293   1.482       .  S
C29         C339   1.541   1_445  S
C29          H34   1.086       .  S
C29          C30   1.364       .  D
C30         C342   1.530   1_445  S
C30         C301   1.474       .  S
C35         C668   1.537   1_565  S
C35         C989   1.546       .  S
C35         C355   1.548       .  S
C35         C197   1.530   1_565  S
C36         C667   1.537   1_445  S
C36          H43   1.086       .  S
C36          C37   1.365       .  D
C37         C670   1.538   1_445  S
C37         C253   1.479       .  S
C38         C669   1.538   1_565  S
C38         C990   1.531       .  S
C38         C356   1.535       .  S
C38          H44   1.110       .  S
C39         C351   1.548       .  S
C39          H45   1.086       .  S
C39          C40   1.371       .  D
C40         C354   1.538       .  S
C40         C245   1.490       .  S
C41         C983   1.547   1_455  S
C41          H46   1.082       .  S
C41          C42   1.362   1_455  D
C42         C986   1.534       .  S
C42         C221   1.479   1_655  S
O47          C62   1.261       .  A
O47         Al55   1.907       .  S
C48          O58   1.264       .  A
C48          O49   1.263       .  A
C48         C157   1.480       .  S
O49         Al51   1.907       .  S
O50          C52   1.263       .  A
O50         Al51   1.918       .  S
Al51         O59   1.915       .  S
Al51         O61   1.896       .  S
Al51         O60   1.794       .  S
C52          O65   1.258       .  A
C52         C173   1.477       .  S
O53          C63   1.260       .  A
O53         Al55   1.905       .  S
O54          C67   1.266       .  A
O54         Al64   1.925       .  S
Al55         O68   1.891       .  S
Al55         O65   1.893       .  S
Al55         O60   1.793       .  S
O56          C63   1.259       .  A
O56         Al64   1.899       .  S
O57          C66   1.258       .  A
O57         Al64   1.903       .  S
O58         Al64   1.914       .  S
O59          C66   1.261       .  A
O60         Al64   1.797       .  S
O61          C62   1.259       .  A
C62         C125   1.484       .  S
C63         C141   1.480       .  S
C66         C117   1.482       .  S
C67          O68   1.261       .  A
C67          C93   1.486       .  S
C69         C702   1.542   1_455  S
C69        C1023   1.547       .  S
C69         C389   1.548       .  S
C69         C213   1.527       .  S
C70         C701   1.542       .  S
C70          H77   1.086       .  S
C70          C71   1.361       .  D
C71         C704   1.532       .  S
C71         C101   1.475       .  S
C72         C703   1.533   1_455  S
C72        C1024   1.530   1_455  S
C72         C390   1.531       .  S
C72          H78   1.112       .  S
C73         C385   1.547       .  S
C73          H79   1.081       .  S
C73          C74   1.367       .  D
C74         C388   1.542       .  S
C74         C109   1.489       .  S
C75        C1017   1.543       .  S
C75          H80   1.086       .  S
C75          C76   1.362       .  D
C76        C1020   1.531       .  S
C76         C133   1.471       .  S
C81        C1030   1.546   1_455  S
C81         C719   1.540       .  S
C81         C401   1.538       .  S
C81         C189   1.527       .  S
C82        C1029   1.547       .  S
C82          H89   1.082       .  S
C82          C83   1.368       .  D
C83        C1032   1.539       .  S
C83         C181   1.483       .  S
C84        C1031   1.539   1_455  S
C84         C720   1.532       .  S
C84         C402   1.539       .  S
C84          H90   1.111       .  S
C85         C397   1.538       .  S
C85          H91   1.086       .  S
C85          C86   1.368       .  D
C86         C400   1.542       .  S
C86         C165   1.488       .  S
C87         C713   1.540       .  S
C87          H92   1.087       .  S
C87          C88   1.359       .  D
C88         C716   1.532       .  S
C88         C149   1.471       .  S
C93          C94   1.409       .  A
C93          C98   1.409       .  A
C94          C95   1.391       .  A
C94         H103   1.083       .  S
C95          C96   1.396       .  A
C95         H104   1.084       .  S
C96         C102   1.401       .  A
C96          C97   1.416       .  A
C97          C99   1.405       .  A
C97          C98   1.412       .  A
C98         H105   1.084       .  S
C99         C100   1.403       .  A
C99         H106   1.083       .  S
C100        C101   1.404       .  A
C100        H107   1.083       .  S
C101        C102   1.397       .  A
C102        H108   1.085       .  S
C109        C110   1.404       .  A
C109        C114   1.410       .  A
C110        C111   1.397       .  A
C110        H119   1.083       .  S
C111        C112   1.402       .  A
C111        H120   1.084       .  S
C112        C118   1.404       .  A
C112        C113   1.413       .  A
C113        C115   1.406       .  A
C113        C114   1.409       .  A
C114        H121   1.084       .  S
C115        C116   1.403       .  A
C115        H122   1.083       .  S
C116        C117   1.404       .  A
C116        H123   1.083       .  S
C117        C118   1.408       .  A
C118        H124   1.085       .  S
C125        C126   1.406       .  A
C125        C130   1.408       .  A
C126        C127   1.401       .  A
C126        H135   1.083       .  S
C127        C128   1.404       .  A
C127        H136   1.083       .  S
C128        C134   1.407       .  A
C128        C129   1.414       .  A
C129        C131   1.403       .  A
C129        C130   1.402       .  A
C130        H137   1.084       .  S
C131        C132   1.396       .  A
C131        H138   1.084       .  S
C132        C133   1.400       .  A
C132        H455   1.084   1_545  S
C133        C134   1.403       .  A
C134        H140   1.084       .  S
H139        C448   1.084       .  S
C141        C142   1.407       .  A
C141        C146   1.406       .  A
C142        C143   1.396       .  A
C142        H151   1.083       .  S
C143        C144   1.400       .  A
C143        H152   1.084       .  S
C144        C150   1.404       .  A
C144        C145   1.416       .  A
C145        C147   1.404       .  A
C145        C146   1.406       .  A
C146        H153   1.084       .  S
C147        C148   1.398       .  A
C147        H154   1.084       .  S
C148        C149   1.401       .  A
C148        H155   1.083       .  S
C149        C150   1.401       .  A
C150        H156   1.085       .  S
C157        C158   1.407       .  A
C157        C162   1.406       .  A
C158        C159   1.395       .  A
C158        H167   1.083       .  S
C159        C160   1.399       .  A
C159        H168   1.084       .  S
C160        C166   1.405       .  A
C160        C161   1.415       .  A
C161        C163   1.402       .  A
C161        C162   1.410       .  A
C162        H169   1.084       .  S
C163        C164   1.400       .  A
C163        H170   1.083       .  S
C164        C165   1.407       .  A
C164        H171   1.083       .  S
C165        C166   1.404       .  A
C166        H488   1.084       .  S
H172        C482   1.084       .  S
C173        C174   1.405       .  A
C173        C178   1.405       .  A
C174        C175   1.398       .  A
C174        H183   1.084       .  S
C175        C176   1.402       .  A
C175        H184   1.084       .  S
C176        C182   1.406       .  A
C176        C177   1.416       .  A
C177        C179   1.404       .  A
C177        C178   1.410       .  A
C178        H185   1.084       .  S
C179        C180   1.400       .  A
C179        H186   1.083   1_545  S
C180        C181   1.403       .  A
C180        H503   1.083   1_545  S
C181        C182   1.405       .  A
C182        H820   1.084       .  S
H187        C496   1.083       .  S
H188        C814   1.084       .  S
C189        C822   1.409       .  A
C189        C510   1.413   1_455  A
C190        C191   1.393       .  A
C190        C821   1.409       .  A
C190        H199   1.083       .  S
C191        C192   1.399       .  A
C191        H200   1.084       .  S
C192        C198   1.403       .  A
C192       C1141   1.411       .  A
C193        C195   1.402       .  A
C193        C194   1.407       .  A
C193       C1140   1.411   1_645  A
C194        C505   1.413   1_655  A
C194        H201   1.078       .  S
C195        C196   1.398       .  A
C195        H202   1.084       .  S
C196        C829   1.409       .  A
C196        H203   1.083       .  S
C197        C828   1.409       .  A
C197        C514   1.412   1_545  A
C198        C513   1.411       .  A
C198        H204   1.078       .  S
C205        C838   1.411       .  A
C205        C526   1.410   1_655  A
C206        C207   1.396       .  A
C206        C837   1.411       .  A
C206        H215   1.076       .  S
C207        C208   1.399   1_554  A
C207        H216   1.084   1_554  S
C208        C214   1.402       .  A
C208       C1157   1.409   1_556  A
C209        C211   1.400   1_554  A
C209        C210   1.404       .  A
C209       C1156   1.409   1_454  A
C210        C521   1.410   1_445  A
C210        H217   1.084       .  S
C211        C212   1.398       .  A
C211        H218   1.084   1_556  S
C212        C529   1.412       .  A
C212        H219   1.077       .  S
C213        C528   1.412       .  A
C213        C846   1.409   1_455  A
C214        C845   1.409       .  A
C214        H220   1.084       .  S
C221        C222   1.402   1_455  A
C221        C226   1.403       .  A
C222        C223   1.400       .  A
C222        H863   1.083       .  S
C223        C224   1.404   1_655  A
C223        H864   1.083       .  S
C224        C230   1.408       .  A
C224        C225   1.415       .  A
C225        C227   1.402       .  A
C225        C226   1.407       .  A
C226        H233   1.084       .  S
C227        C228   1.399       .  A
C227        H234   1.083       .  S
C228        C229   1.405       .  A
C228        H235   1.083       .  S
C229        C230   1.407       .  A
C230        H236   1.084       .  S
H231        C854   1.082       .  S
H232        C855   1.083       .  S
C237        C238   1.405       .  A
C237        C242   1.407       .  A
C238        C239   1.392       .  A
C238        H247   1.084       .  S
C239        C240   1.399       .  A
C239        H248   1.084       .  S
C240        C246   1.400       .  A
C240        C241   1.414       .  A
C241        C243   1.404       .  A
C241        C242   1.410       .  A
C242        H249   1.084       .  S
C243        C244   1.403       .  A
C243        H250   1.084       .  S
C244        C245   1.408       .  A
C244        H251   1.082       .  S
C245        C246   1.404       .  A
C246        H252   1.082       .  S
C253        C254   1.403   1_455  A
C253        C258   1.407       .  A
C254        C255   1.393   1_655  A
C254        H895   1.083       .  S
C255        C256   1.400       .  A
C255        H264   1.084   1_455  S
C256        C262   1.398       .  A
C256        C257   1.414       .  A
C257        C259   1.404       .  A
C257        C258   1.405       .  A
C258        H265   1.084       .  S
C259        C260   1.400       .  A
C259        H266   1.083       .  S
C260        C261   1.404       .  A
C260        H267   1.083       .  S
C261        C262   1.403       .  A
C262        H268   1.085       .  S
H263        C886   1.083       .  S
C269        C270   1.408       .  A
C269        C274   1.406       .  A
C270        C271   1.391       .  A
C270        H279   1.083       .  S
C271        C272   1.397       .  A
C271        H280   1.084   1_455  S
C272        C278   1.400       .  A
C272        C273   1.416       .  A
C273        C275   1.404       .  A
C273        C274   1.410       .  A
C274        H281   1.084       .  S
C275        C276   1.402       .  A
C275        H282   1.084       .  S
C276        C277   1.407       .  A
C276        H283   1.083       .  S
C277        C278   1.401       .  A
C278        H284   1.085   1_455  S
C285        C286   1.406       .  A
C285        C290   1.404       .  A
C286        C287   1.403       .  A
C286        H295   1.083       .  S
C287        C288   1.406       .  A
C287        H296   1.083       .  S
C288        C294   1.408       .  A
C288        C289   1.414       .  A
C289        C291   1.400       .  A
C289        C290   1.400       .  A
C290        H297   1.084       .  S
C291        C292   1.394       .  A
C291        H298   1.084       .  S
C292        C293   1.403       .  A
C292        H615   1.083       .  S
C293        C294   1.409       .  A
C294        H300   1.084       .  S
H299        C608   1.083   1_545  S
C301        C302   1.401       .  A
C301        C306   1.406       .  A
C302        C303   1.391       .  A
C302        H311   1.084       .  S
C303        C304   1.400       .  A
C303        H312   1.084       .  S
C304        C310   1.397       .  A
C304        C305   1.414       .  A
C305        C307   1.405       .  A
C305        C306   1.407       .  A
C306        H313   1.084   1_455  S
C307        C308   1.402       .  A
C307        H314   1.084       .  S
C308        C309   1.405       .  A
C308        H315   1.083       .  S
C309        C310   1.404       .  A
C310        H316   1.085       .  S
O317        C332   1.263       .  A
O317       Al325   1.901       .  S
C318        O328   1.262       .  A
C318        O319   1.264       .  A
C318        C601   1.477       .  S
O319       Al321   1.912       .  S
O320        C322   1.266       .  A
O320       Al321   1.932       .  S
Al321       O329   1.925       .  S
Al321       O331   1.901       .  S
Al321       O330   1.786       .  S
C322        O335   1.260       .  A
C322        C585   1.485       .  S
O323        C333   1.262       .  A
O323       Al325   1.908       .  S
O324        C337   1.261       .  A
O324       Al334   1.902       .  S
Al325       O338   1.920       .  S
Al325       O335   1.894       .  S
Al325       O330   1.786       .  S
O326        C333   1.261       .  A
O326       Al334   1.902       .  S
O327        C336   1.259       .  A
O327       Al334   1.898       .  S
O328       Al334   1.903       .  S
O329        C336   1.263       .  A
O330       Al334   1.782       .  S
O331        C332   1.262       .  A
C332        C545   1.471       .  S
C333        C625   1.479       .  S
C336        C553   1.483       .  S
C337        O338   1.264       .  A
C337        C577   1.478       .  S
C339        C340   1.545   1_655  S
C339        C975   1.548       .  S
C339        C521   1.530       .  S
C340        H347   1.086       .  S
C340        C341   1.367       .  D
C341        C342   1.537   1_455  S
C341        C593   1.489       .  S
C342        C976   1.534       .  S
C342        H348   1.110       .  S
C343        C971   1.548       .  S
C343        H349   1.081       .  S
C343        C344   1.364       .  D
C344        C974   1.534       .  S
C344        C609   1.480       .  S
C345        H350   1.086       .  S
C345        C346   1.363       .  D
C346        C617   1.473       .  S
C351        C984   1.535       .  S
C351        C673   1.548       .  S
C351        C513   1.530       .  S
C352        C983   1.536   1_455  S
C352        H359   1.086       .  S
C352        C353   1.364       .  D
C353        C986   1.537   1_455  S
C353        C569   1.481       .  S
C354        C985   1.537       .  S
C354        C674   1.534       .  S
C354        H360   1.109       .  S
C355        H361   1.086       .  S
C355        C356   1.369       .  D
C356        C561   1.487       .  S
C357        C667   1.546   1_455  S
C357        H362   1.081       .  S
C357        C358   1.359       .  D
C358        C670   1.531   1_455  S
C358        C537   1.474       .  S
O363        C378   1.262       .  A
O363       Al371   1.917       .  S
C364        O374   1.263       .  A
C364        O365   1.260       .  A
C364        C473   1.482       .  S
O365       Al367   1.902       .  S
O366        C368   1.260       .  A
O366       Al367   1.899       .  S
Al367       O375   1.901       .  S
Al367       O377   1.893       .  S
Al367       O376   1.792       .  S
C368        O381   1.260       .  A
C368        C489   1.468       .  S
O369        C379   1.261       .  A
O369       Al371   1.904       .  S
O370        C383   1.265       .  A
O370       Al380   1.930       .  S
Al371       O384   1.891       .  S
Al371       O381   1.901       .  S
Al371       O376   1.792       .  S
O372        C379   1.261       .  A
O372       Al380   1.905       .  S
O373        C382   1.262       .  A
O373       Al380   1.915       .  S
O374       Al380   1.912       .  S
O375        C382   1.261       .  A
O376       Al380   1.794       .  S
O377        C378   1.259       .  A
C378        C441   1.484       .  S
C379        C457   1.480       .  S
C382        C433   1.484       .  S
C383        O384   1.260       .  A
C383        C409   1.480       .  S
C385       C1018   1.539   1_445  S
C385        C707   1.543       .  S
C385        C529   1.530       .  S
C386       C1017   1.539   1_565  S
C386        H393   1.086       .  S
C386        C387   1.366       .  D
C387       C1020   1.543   1_565  S
C387        C417   1.493       .  S
C388       C1019   1.544   1_445  S
C388        C708   1.531   1_455  S
C388        H394   1.109       .  S
C389        H395   1.081       .  S
C389        C390   1.364       .  D
C390        C425   1.477       .  S
C391        C701   1.547       .  S
C391        H396   1.086       .  S
C391        C392   1.367       .  D
C392        C704   1.530       .  S
C392        C449   1.474       .  S
C397        C714   1.547   1_455  S
C397       C1035   1.541   1_545  S
C397        C505   1.528       .  S
C398        C713   1.546       .  S
C398        H405   1.082       .  S
C398        C399   1.369       .  D
C399        C716   1.539       .  S
C399        C497   1.480       .  S
C400        C715   1.539   1_455  S
C400       C1036   1.533   1_545  S
C400        H406   1.110       .  S
C401        H407   1.086       .  S
C401        C402   1.365       .  D
C402        C481   1.481       .  S
C403       C1029   1.541   1_565  S
C403        H408   1.087       .  S
C403        C404   1.359       .  D
C404       C1032   1.533   1_565  S
C404        C465   1.472       .  S
C409        C410   1.406       .  A
C409        C414   1.407       .  A
C410        C411   1.391       .  A
C410        H419   1.084       .  S
C411        C412   1.397       .  A
C411        H420   1.084       .  S
C412        C418   1.404       .  A
C412        C413   1.416       .  A
C413        C415   1.403       .  A
C413        C414   1.415       .  A
C414        H421   1.084       .  S
C415        C416   1.403       .  A
C415        H422   1.083       .  S
C416        C417   1.410       .  A
C416        H423   1.082       .  S
C417        C418   1.403       .  A
C418        H424   1.083       .  S
C425        C426   1.403       .  A
C425        C430   1.403       .  A
C426        C427   1.397       .  A
C426        H435   1.084       .  S
C427        C428   1.403       .  A
C427        H436   1.084       .  S
C428        C434   1.404       .  A
C428        C429   1.414       .  A
C429        C431   1.402       .  A
C429        C430   1.406       .  A
C430        H437   1.084       .  S
C431        C432   1.399       .  A
C431        H438   1.083       .  S
C432        C433   1.406       .  A
C432        H439   1.083       .  S
C433        C434   1.409       .  A
C434        H440   1.084       .  S
C441        C442   1.406       .  A
C441        C446   1.407       .  A
C442        C443   1.404       .  A
C442        H451   1.083       .  S
C443        C444   1.406       .  A
C443        H452   1.083       .  S
C444        C450   1.409       .  A
C444        C445   1.414       .  A
C445        C447   1.400       .  A
C445        C446   1.399       .  A
C446        H453   1.084       .  S
C447        C448   1.392       .  A
C447        H454   1.084       .  S
C448        C449   1.401       .  A
C449        C450   1.406       .  A
C450        H456   1.084       .  S
C457        C458   1.406       .  A
C457        C462   1.407       .  A
C458        C459   1.396       .  A
C458        H467   1.083       .  S
C459        C460   1.400       .  A
C459        H468   1.084       .  S
C460        C466   1.404       .  A
C460        C461   1.416       .  A
C461        C463   1.404       .  A
C461        C462   1.407       .  A
C462        H469   1.084       .  S
C463        C464   1.399       .  A
C463        H470   1.084       .  S
C464        C465   1.401       .  A
C464        H471   1.083       .  S
C465        C466   1.400       .  A
C466        H472   1.085       .  S
C473        C474   1.408       .  A
C473        C478   1.406       .  A
C474        C475   1.396       .  A
C474        H483   1.083       .  S
C475        C476   1.400       .  A
C475        H484   1.084       .  S
C476        C482   1.405       .  A
C476        C477   1.415       .  A
C477        C479   1.402       .  A
C477        C478   1.407       .  A
C478        H485   1.084       .  S
C479        C480   1.398       .  A
C479        H486   1.083       .  S
C480        C481   1.405       .  A
C480        H487   1.083       .  S
C481        C482   1.403       .  A
C489        C490   1.402       .  A
C489        C494   1.403       .  A
C490        C491   1.397       .  A
C490        H499   1.084       .  S
C491        C492   1.402       .  A
C491        H500   1.084       .  S
C492        C498   1.403       .  A
C492        C493   1.415       .  A
C493        C495   1.403       .  A
C493        C494   1.405       .  A
C494        H501   1.084       .  S
C495        C496   1.399       .  A
C495        H502   1.083       .  S
C496        C497   1.403       .  A
C497        C498   1.404       .  A
C498       H1136   1.084       .  S
H504       C1130   1.084       .  S
C505       C1138   1.409   1_545  A
C506       C1137   1.409   1_565  A
C506        C507   1.393       .  A
C506        H515   1.083       .  S
C507        C508   1.399       .  A
C507        H516   1.084       .  S
C508        C514   1.402       .  A
C508        C825   1.410   1_565  A
C509        C824   1.411   1_655  A
C509        C511   1.402       .  A
C509        C510   1.408       .  A
C510        H517   1.078       .  S
C511        C512   1.399       .  A
C511        H518   1.084       .  S
C512       C1145   1.410       .  A
C512        H519   1.083       .  S
C513       C1144   1.410       .  A
C514        H520   1.076       .  S
C521       C1154   1.412       .  A
C522       C1153   1.412       .  A
C522        C523   1.397       .  A
C522        H531   1.076       .  S
C523        C524   1.399   1_554  A
C523        H532   1.084   1_554  S
C524        C530   1.403   1_565  A
C524        C841   1.409   1_566  A
C525        C840   1.409   1_454  A
C525        C527   1.400   1_554  A
C525        C526   1.403       .  A
C526        H533   1.085       .  S
C527        C528   1.398       .  A
C527        H534   1.084   1_556  S
C528        H535   1.076       .  S
C529       C1162   1.410   1_455  A
C530       C1161   1.410       .  A
C530        H536   1.085   1_545  S
C537        C538   1.401   1_455  A
C537        C542   1.402       .  A
C538        C539   1.396       .  A
C538       H1179   1.080       .  S
C539        C540   1.402   1_655  A
C539       H1180   1.084       .  S
C540        C546   1.403       .  A
C540        C541   1.416       .  A
C541        C543   1.402       .  A
C541        C542   1.404       .  A
C542        H549   1.084       .  S
C543        C544   1.397       .  A
C543        H550   1.083       .  S
C544        C545   1.404       .  A
C544        H551   1.084       .  S
C545        C546   1.403       .  A
C546        H552   1.085       .  S
H547       C1170   1.081       .  S
H548       C1171   1.084       .  S
C553        C554   1.407       .  A
C553        C558   1.409       .  A
C554        C555   1.392       .  A
C554        H563   1.083       .  S
C555        C556   1.398       .  A
C555        H564   1.084       .  S
C556        C562   1.400       .  A
C556        C557   1.414       .  A
C557        C559   1.406       .  A
C557        C558   1.413       .  A
C558        H565   1.084       .  S
C559        C560   1.405       .  A
C559        H566   1.083       .  S
C560        C561   1.406       .  A
C560        H567   1.083       .  S
C561        C562   1.402       .  A
C562        H568   1.081       .  S
C569        C570   1.404   1_455  A
C569        C574   1.406       .  A
C570        C571   1.396       .  A
C570       H1211   1.083       .  S
C571        C572   1.402   1_655  A
C571        H580   1.084       .  S
C572        C578   1.403       .  A
C572        C573   1.414       .  A
C573        C575   1.403       .  A
C573        C574   1.406       .  A
C574        H581   1.084       .  S
C575        C576   1.400       .  A
C575        H582   1.083       .  S
C576        C577   1.404       .  A
C576        H583   1.083       .  S
C577        C578   1.406       .  A
C578        H584   1.084       .  S
H579       C1202   1.083       .  S
C585        C586   1.408       .  A
C585        C590   1.408       .  A
C586        C587   1.392       .  A
C586        H595   1.083       .  S
C587        C588   1.397       .  A
C587        H596   1.084   1_455  S
C588        C594   1.403       .  A
C588        C589   1.416       .  A
C589        C591   1.405       .  A
C589        C590   1.414       .  A
C590        H597   1.084       .  S
C591        C592   1.404       .  A
C591        H598   1.084       .  S
C592        C593   1.407       .  A
C592        H599   1.083       .  S
C593        C594   1.403       .  A
C594        H600   1.084   1_455  S
C601        C602   1.405       .  A
C601        C606   1.405       .  A
C602        C603   1.402       .  A
C602        H611   1.083       .  S
C603        C604   1.405       .  A
C603        H612   1.083       .  S
C604        C610   1.407       .  A
C604        C605   1.414       .  A
C605        C607   1.400       .  A
C605        C606   1.399       .  A
C606        H613   1.085       .  S
C607        C608   1.393       .  A
C607        H614   1.084       .  S
C608        C609   1.403       .  A
C609        C610   1.407       .  A
C610        H616   1.084       .  S
C617        C618   1.401       .  A
C617        C622   1.405       .  A
C618        C619   1.393       .  A
C618        H627   1.084       .  S
C619        C620   1.401       .  A
C619        H628   1.084       .  S
C620        C626   1.398       .  A
C620        C621   1.414       .  A
C621        C623   1.404       .  A
C621        C622   1.406       .  A
C622        H629   1.084   1_455  S
C623        C624   1.401       .  A
C623        H630   1.084   1_455  S
C624        C625   1.405       .  A
C624        H631   1.083       .  S
C625        C626   1.406       .  A
C626        H632   1.085       .  S
O633        C648   1.264       .  A
O633       Al641   1.907       .  S
C634        O644   1.261       .  A
C634        O635   1.266       .  A
C634        C917   1.479       .  S
O635       Al637   1.923       .  S
O636        C638   1.265       .  A
O636       Al637   1.925       .  S
Al637       O645   1.919       .  S
Al637       O647   1.915       .  S
Al637       O646   1.780       .  S
C638        O651   1.260       .  A
C638        C901   1.479       .  S
O639        C649   1.261       .  A
O639       Al641   1.909       .  S
O640        C653   1.261       .  A
O640       Al650   1.899       .  S
Al641       O654   1.915       .  S
Al641       O651   1.891       .  S
Al641       O646   1.784       .  S
O642        C649   1.260       .  A
O642       Al650   1.900       .  S
O643        C652   1.260       .  A
O643       Al650   1.901       .  S
O644       Al650   1.902       .  S
O645        C652   1.263       .  A
O646       Al650   1.783       .  S
O647        C648   1.264       .  A
C648        C861   1.479       .  S
C649        C941   1.477       .  S
C652        C869   1.476       .  S
C653        O654   1.264       .  A
C653        C893   1.473       .  S
C655        C656   1.543       .  S
C655        C977   1.541       .  S
C655        C837   1.527       .  S
C656        H663   1.086       .  S
C656        C657   1.366       .  D
C657        C658   1.537       .  S
C657        C909   1.484       .  S
C658        C978   1.531       .  S
C658        H664   1.111       .  S
C659        H665   1.081       .  S
C659        C660   1.365       .  D
C660        C925   1.482       .  S
C661        C971   1.541   1_545  S
C661        H666   1.086       .  S
C661        C662   1.363       .  D
C662        C974   1.530   1_545  S
C662        C933   1.473       .  S
C667        C987   1.548       .  S
C667        C829   1.530   1_565  S
C668        H675   1.086       .  S
C668        C669   1.365       .  D
C669        C885   1.479       .  S
C670        C988   1.535       .  S
C670        H676   1.110       .  S
C671        C983   1.548       .  S
C671        H677   1.086       .  S
C671        C672   1.371       .  D
C672        C986   1.538       .  S
C672        C877   1.491       .  S
C673        H678   1.082       .  S
C673        C674   1.362       .  D
C674        C853   1.480       .  S
O679        C694   1.261       .  A
O679       Al687   1.908       .  S
C680        O690   1.264       .  A
C680        O681   1.263       .  A
C680        C789   1.480       .  S
O681       Al683   1.907       .  S
O682        C684   1.263       .  A
O682       Al683   1.919       .  S
Al683       O691   1.915       .  S
Al683       O693   1.896       .  S
Al683       O692   1.795       .  S
C684        O697   1.258       .  A
C684        C805   1.478       .  S
O685        C695   1.260       .  A
O685       Al687   1.904       .  S
O686        C699   1.266       .  A
O686       Al696   1.925       .  S
Al687       O700   1.890       .  S
Al687       O697   1.892       .  S
Al687       O692   1.793       .  S
O688        C695   1.258       .  A
O688       Al696   1.900       .  S
O689        C698   1.258       .  A
O689       Al696   1.902       .  S
O690       Al696   1.913       .  S
O691        C698   1.261       .  A
O692       Al696   1.798       .  S
O693        C694   1.259       .  A
C694        C757   1.484       .  S
C695        C773   1.479       .  S
C698        C749   1.481       .  S
C699        O700   1.261       .  A
C699        C725   1.486       .  S
C701       C1021   1.548       .  S
C701        C845   1.528       .  S
C702        H709   1.086       .  S
C702        C703   1.361       .  D
C703        C733   1.475       .  S
C704       C1022   1.531       .  S
C704        H710   1.112       .  S
C705       C1017   1.547       .  S
C705        H711   1.081       .  S
C705        C706   1.367       .  D
C706       C1020   1.542       .  S
C706        C741   1.489       .  S
C707        H712   1.086   1_455  S
C707        C708   1.363   1_455  D
C708        C765   1.472       .  S
C713       C1033   1.538       .  S
C713        C821   1.527       .  S
C714        H721   1.082       .  S
C714        C715   1.367       .  D
C715        C813   1.483       .  S
C716       C1034   1.538       .  S
C716        H722   1.111       .  S
C717       C1029   1.538       .  S
C717        H723   1.086       .  S
C717        C718   1.368       .  D
C718       C1032   1.542       .  S
C718        C797   1.488       .  S
C719        H724   1.087   1_455  S
C719        C720   1.359       .  D
C720        C781   1.472   1_455  S
C725        C726   1.409       .  A
C725        C730   1.409       .  A
C726        C727   1.390       .  A
C726        H735   1.083       .  S
C727        C728   1.395       .  A
C727        H736   1.084   1_655  S
C728        C734   1.400       .  A
C728        C729   1.416       .  A
C729        C731   1.406       .  A
C729        C730   1.412       .  A
C730        H737   1.084       .  S
C731        C732   1.403       .  A
C731        H738   1.083       .  S
C732        C733   1.404       .  A
C732        H739   1.083       .  S
C733        C734   1.397       .  A
C734        H740   1.085   1_655  S
C741        C742   1.404       .  A
C741        C746   1.410       .  A
C742        C743   1.397       .  A
C742        H751   1.083       .  S
C743        C744   1.402       .  A
C743        H752   1.084       .  S
C744        C750   1.403       .  A
C744        C745   1.413       .  A
C745        C747   1.406       .  A
C745        C746   1.409       .  A
C746        H753   1.084       .  S
C747        C748   1.403       .  A
C747        H754   1.083       .  S
C748        C749   1.404       .  A
C748        H755   1.083       .  S
C749        C750   1.408       .  A
C750        H756   1.085       .  S
C757        C758   1.406       .  A
C757        C762   1.408       .  A
C758        C759   1.401       .  A
C758        H767   1.083       .  S
C759        C760   1.404       .  A
C759        H768   1.083   1_655  S
C760        C766   1.407       .  A
C760        C761   1.414       .  A
C761        C763   1.403       .  A
C761        C762   1.402       .  A
C762        H769   1.084       .  S
C763        C764   1.396       .  A
C763        H770   1.084       .  S
C764        C765   1.400       .  A
C764       H1087   1.084   1_545  S
C765        C766   1.404       .  A
C766        H772   1.084   1_655  S
H771       C1080   1.084       .  S
C773        C774   1.407       .  A
C773        C778   1.405       .  A
C774        C775   1.397       .  A
C774        H783   1.083       .  S
C775        C776   1.401       .  A
C775        H784   1.084       .  S
C776        C782   1.405       .  A
C776        C777   1.416       .  A
C777        C779   1.403   1_655  A
C777        C778   1.406       .  A
C778        H785   1.084       .  S
C779        C780   1.398       .  A
C779        H786   1.084       .  S
C780        C781   1.400   1_455  A
C780        H787   1.083       .  S
C781        C782   1.401       .  A
C782        H788   1.085       .  S
C789        C790   1.406       .  A
C789        C794   1.406       .  A
C790        C791   1.395       .  A
C790        H799   1.083       .  S
C791        C792   1.399       .  A
C791        H800   1.084       .  S
C792        C798   1.404       .  A
C792        C793   1.415       .  A
C793        C795   1.402       .  A
C793        C794   1.409       .  A
C794        H801   1.084       .  S
C795        C796   1.400       .  A
C795        H802   1.083       .  S
C796        C797   1.407       .  A
C796        H803   1.083       .  S
C797        C798   1.404       .  A
C798       H1120   1.084       .  S
H804       C1114   1.084       .  S
C805        C806   1.405       .  A
C805        C810   1.405       .  A
C806        C807   1.398       .  A
C806        H815   1.084       .  S
C807        C808   1.402       .  A
C807        H816   1.084       .  S
C808        C814   1.406       .  A
C808        C809   1.416       .  A
C809        C811   1.404       .  A
C809        C810   1.410       .  A
C810        H817   1.084       .  S
C811        C812   1.400       .  A
C811        H818   1.083   1_545  S
C812        C813   1.403       .  A
C812       H1135   1.083   1_545  S
C813        C814   1.405       .  A
H819       C1128   1.083       .  S
C821       C1142   1.413       .  A
C822        C823   1.393       .  A
C822        H831   1.083       .  S
C823        C824   1.399       .  A
C823        H832   1.084       .  S
C824        C830   1.403       .  A
C825        C827   1.402       .  A
C825        C826   1.407       .  A
C826       C1137   1.412       .  A
C826        H833   1.078       .  S
C827        C828   1.398       .  A
C827        H834   1.084       .  S
C828        H835   1.083       .  S
C829       C1146   1.412   1_645  A
C830       C1145   1.411   1_455  A
C830        H836   1.078       .  S
C837       C1158   1.410       .  A
C838        C839   1.396       .  A
C838        H847   1.076       .  S
C839        C840   1.399   1_554  A
C839        H848   1.084   1_554  S
C840        C846   1.401       .  A
C841        C843   1.400   1_554  A
C841        C842   1.404       .  A
C842       C1153   1.410   1_545  A
C842        H849   1.084       .  S
C843        C844   1.398       .  A
C843        H850   1.084   1_556  S
C844       C1161   1.411       .  A
C844        H851   1.077       .  S
C845       C1160   1.412       .  A
C846        H852   1.084       .  S
C853        C854   1.402       .  A
C853        C858   1.404       .  A
C854        C855   1.400       .  A
C855        C856   1.404       .  A
C856        C862   1.408       .  A
C856        C857   1.415       .  A
C857        C859   1.403       .  A
C857        C858   1.407       .  A
C858        H865   1.084       .  S
C859        C860   1.399       .  A
C859        H866   1.083       .  S
C860        C861   1.405       .  A
C860        H867   1.083       .  S
C861        C862   1.406       .  A
C862        H868   1.084       .  S
C869        C870   1.406       .  A
C869        C874   1.407       .  A
C870        C871   1.392       .  A
C870        H879   1.084       .  S
C871        C872   1.399       .  A
C871        H880   1.084       .  S
C872        C878   1.400       .  A
C872        C873   1.414       .  A
C873        C875   1.404       .  A
C873        C874   1.410       .  A
C874        H881   1.084       .  S
C875        C876   1.403       .  A
C875        H882   1.084       .  S
C876        C877   1.408       .  A
C876        H883   1.082       .  S
C877        C878   1.404       .  A
C878        H884   1.082       .  S
C885        C886   1.403       .  A
C885        C890   1.407       .  A
C886        C887   1.393       .  A
C887        C888   1.400       .  A
C887        H896   1.084       .  S
C888        C894   1.399       .  A
C888        C889   1.414       .  A
C889        C891   1.404       .  A
C889        C890   1.405       .  A
C890        H897   1.084       .  S
C891        C892   1.400       .  A
C891        H898   1.083       .  S
C892        C893   1.404       .  A
C892        H899   1.083       .  S
C893        C894   1.403       .  A
C894        H900   1.085       .  S
C901        C902   1.408       .  A
C901        C906   1.406       .  A
C902        C903   1.391       .  A
C902        H911   1.083       .  S
C903        C904   1.397       .  A
C903        H912   1.084       .  S
C904        C910   1.401       .  A
C904        C905   1.416       .  A
C905        C907   1.404       .  A
C905        C906   1.411       .  A
C906        H913   1.084       .  S
C907        C908   1.402       .  A
C907        H914   1.084       .  S
C908        C909   1.407       .  A
C908        H915   1.083       .  S
C909        C910   1.401       .  A
C910        H916   1.085       .  S
C917        C918   1.406       .  A
C917        C922   1.404       .  A
C918        C919   1.403       .  A
C918        H927   1.083       .  S
C919        C920   1.406       .  A
C919        H928   1.083       .  S
C920        C926   1.408       .  A
C920        C921   1.414       .  A
C921        C923   1.400       .  A
C921        C922   1.400       .  A
C922        H929   1.084       .  S
C923        C924   1.393       .  A
C923        H930   1.084       .  S
C924        C925   1.403       .  A
C924       H1247   1.083       .  S
C925        C926   1.409       .  A
C926        H932   1.084       .  S
H931       C1240   1.083   1_545  S
C933        C934   1.401       .  A
C933        C938   1.406       .  A
C934        C935   1.391       .  A
C934        H943   1.084       .  S
C935        C936   1.400       .  A
C935        H944   1.084       .  S
C936        C942   1.397       .  A
C936        C937   1.414       .  A
C937        C939   1.405       .  A
C937        C938   1.407       .  A
C938        H945   1.084       .  S
C939        C940   1.402       .  A
C939        H946   1.084       .  S
C940        C941   1.405       .  A
C940        H947   1.083       .  S
C941        C942   1.404       .  A
C942        H948   1.085       .  S
O949        C964   1.263       .  A
O949       Al957   1.901       .  S
C950        O960   1.262       .  A
C950        O951   1.264       .  A
C950       C1233   1.477       .  S
O951       Al953   1.912       .  S
O952        C954   1.266       .  A
O952       Al953   1.932       .  S
Al953       O961   1.925       .  S
Al953       O963   1.902       .  S
Al953       O962   1.785       .  S
C954        O967   1.260       .  A
C954       C1217   1.485       .  S
O955        C965   1.262       .  A
O955       Al957   1.908       .  S
O956        C969   1.261       .  A
O956       Al966   1.902       .  S
Al957       O970   1.919       .  S
Al957       O967   1.894       .  S
Al957       O962   1.786       .  S
O958        C965   1.261       .  A
O958       Al966   1.902       .  S
O959        C968   1.259       .  A
O959       Al966   1.897       .  S
O960       Al966   1.902       .  S
O961        C968   1.263       .  A
O962       Al966   1.782       .  S
O963        C964   1.262       .  A
C964       C1177   1.470       .  S
C965       C1257   1.479       .  S
C968       C1185   1.483       .  S
C969        O970   1.263       .  A
C969       C1209   1.477       .  S
C971        C972   1.545       .  S
C971       C1153   1.529       .  S
C972        H979   1.086       .  S
C972        C973   1.367       .  D
C973        C974   1.537       .  S
C973       C1225   1.489       .  S
C974        H980   1.110       .  S
C975        H981   1.081       .  S
C975        C976   1.364       .  D
C976       C1241   1.480       .  S
C977        H982   1.086       .  S
C977        C978   1.363       .  D
C978       C1249   1.473       .  S
C983       C1145   1.530       .  S
C984        H991   1.086       .  S
C984        C985   1.363       .  D
C985       C1201   1.480       .  S
C986        H992   1.109       .  S
C987        H993   1.086       .  S
C987        C988   1.369       .  D
C988       C1193   1.487       .  S
C989        H994   1.081       .  S
C989        C990   1.359       .  D
C990       C1169   1.473       .  S
O995       C1010   1.262       .  A
O995      Al1003   1.917       .  S
C996       O1006   1.263       .  A
C996        O997   1.260       .  A
C996       C1105   1.482       .  S
O997       Al999   1.902       .  S
O998       C1000   1.261       .  A
O998       Al999   1.899       .  S
Al999      O1007   1.901       .  S
Al999      O1009   1.893       .  S
Al999      O1008   1.792       .  S
C1000      O1013   1.260       .  A
C1000      C1121   1.469       .  S
O1001      C1011   1.261       .  A
O1001     Al1003   1.903       .  S
O1002      C1015   1.265       .  A
O1002     Al1012   1.930       .  S
Al1003     O1016   1.892       .  S
Al1003     O1013   1.903       .  S
Al1003     O1008   1.792       .  S
O1004      C1011   1.261       .  A
O1004     Al1012   1.906       .  S
O1005      C1014   1.263       .  A
O1005     Al1012   1.915       .  S
O1006     Al1012   1.911       .  S
O1007      C1014   1.262       .  A
O1008     Al1012   1.794       .  S
O1009      C1010   1.259       .  A
C1010      C1073   1.484       .  S
C1011      C1089   1.480       .  S
C1014      C1065   1.483       .  S
C1015      O1016   1.260       .  A
C1015      C1041   1.481       .  S
C1017      C1161   1.529       .  S
C1018      H1025   1.086       .  S
C1018      C1019   1.367       .  D
C1019      C1049   1.494       .  S
C1020      H1026   1.109       .  S
C1021      H1027   1.081       .  S
C1021      C1022   1.364       .  D
C1022      C1057   1.477       .  S
C1023      H1028   1.086   1_455  S
C1023      C1024   1.366   1_455  D
C1024      C1081   1.474       .  S
C1029      C1137   1.528       .  S
C1030      H1037   1.082       .  S
C1030      C1031   1.369       .  D
C1031      C1129   1.481       .  S
C1032      H1038   1.110       .  S
C1033      H1039   1.086       .  S
C1033      C1034   1.365       .  D
C1034      C1113   1.480       .  S
C1035      H1040   1.087   1_455  S
C1035      C1036   1.360       .  D
C1036      C1097   1.473   1_455  S
C1041      C1042   1.406       .  A
C1041      C1046   1.408       .  A
C1042      C1043   1.391       .  A
C1042      H1051   1.084       .  S
C1043      C1044   1.397       .  A
C1043      H1052   1.084       .  S
C1044      C1050   1.404       .  A
C1044      C1045   1.416       .  A
C1045      C1047   1.403       .  A
C1045      C1046   1.415       .  A
C1046      H1053   1.084       .  S
C1047      C1048   1.403       .  A
C1047      H1054   1.083       .  S
C1048      C1049   1.410       .  A
C1048      H1055   1.082       .  S
C1049      C1050   1.403       .  A
C1050      H1056   1.083   1_655  S
C1057      C1058   1.403       .  A
C1057      C1062   1.403       .  A
C1058      C1059   1.397       .  A
C1058      H1067   1.084       .  S
C1059      C1060   1.403       .  A
C1059      H1068   1.084       .  S
C1060      C1066   1.404       .  A
C1060      C1061   1.414       .  A
C1061      C1063   1.402       .  A
C1061      C1062   1.406       .  A
C1062      H1069   1.084       .  S
C1063      C1064   1.399       .  A
C1063      H1070   1.083       .  S
C1064      C1065   1.406       .  A
C1064      H1071   1.083       .  S
C1065      C1066   1.408       .  A
C1066      H1072   1.084       .  S
C1073      C1074   1.406       .  A
C1073      C1078   1.407       .  A
C1074      C1075   1.404       .  A
C1074      H1083   1.083       .  S
C1075      C1076   1.406       .  A
C1075      H1084   1.083   1_655  S
C1076      C1082   1.409       .  A
C1076      C1077   1.414       .  A
C1077      C1079   1.401       .  A
C1077      C1078   1.399       .  A
C1078      H1085   1.084       .  S
C1079      C1080   1.392       .  A
C1079      H1086   1.084       .  S
C1080      C1081   1.401       .  A
C1081      C1082   1.406       .  A
C1082      H1088   1.084   1_655  S
C1089      C1090   1.406       .  A
C1089      C1094   1.407       .  A
C1090      C1091   1.397       .  A
C1090      H1099   1.083       .  S
C1091      C1092   1.401       .  A
C1091      H1100   1.084       .  S
C1092      C1098   1.405       .  A
C1092      C1093   1.416       .  A
C1093      C1095   1.404   1_655  A
C1093      C1094   1.407       .  A
C1094      H1101   1.084       .  S
C1095      C1096   1.399       .  A
C1095      H1102   1.084       .  S
C1096      C1097   1.401   1_455  A
C1096      H1103   1.083       .  S
C1097      C1098   1.401       .  A
C1098      H1104   1.085       .  S
C1105      C1106   1.408       .  A
C1105      C1110   1.405       .  A
C1106      C1107   1.396       .  A
C1106      H1115   1.083       .  S
C1107      C1108   1.400       .  A
C1107      H1116   1.084       .  S
C1108      C1114   1.405       .  A
C1108      C1109   1.416       .  A
C1109      C1111   1.402       .  A
C1109      C1110   1.406       .  A
C1110      H1117   1.084       .  S
C1111      C1112   1.398       .  A
C1111      H1118   1.083       .  S
C1112      C1113   1.404       .  A
C1112      H1119   1.083       .  S
C1113      C1114   1.403       .  A
C1121      C1122   1.402       .  A
C1121      C1126   1.403       .  A
C1122      C1123   1.397       .  A
C1122      H1131   1.084       .  S
C1123      C1124   1.402       .  A
C1123      H1132   1.084       .  S
C1124      C1130   1.404       .  A
C1124      C1125   1.415       .  A
C1125      C1127   1.403       .  A
C1125      C1126   1.405       .  A
C1126      H1133   1.084       .  S
C1127      C1128   1.399       .  A
C1127      H1134   1.083       .  S
C1128      C1129   1.403       .  A
C1129      C1130   1.404       .  A
C1138      C1139   1.394       .  A
C1138      H1147   1.083       .  S
C1139      C1140   1.399       .  A
C1139      H1148   1.084       .  S
C1140      C1146   1.402       .  A
C1141      C1143   1.402       .  A
C1141      C1142   1.408       .  A
C1142      H1149   1.078       .  S
C1143      C1144   1.399       .  A
C1143      H1150   1.084       .  S
C1144      H1151   1.083       .  S
C1146      H1152   1.076       .  S
C1154      C1155   1.397       .  A
C1154      H1163   1.076       .  S
C1155      C1156   1.400   1_564  A
C1155      H1164   1.084   1_554  S
C1156      C1162   1.403       .  A
C1157      C1159   1.400   1_554  A
C1157      C1158   1.403       .  A
C1158      H1165   1.085       .  S
C1159      C1160   1.398       .  A
C1159      H1166   1.084   1_556  S
C1160      H1167   1.077       .  S
C1162      H1168   1.084   1_545  S
C1169      C1170   1.401       .  A
C1169      C1174   1.402       .  A
C1170      C1171   1.396       .  A
C1171      C1172   1.402       .  A
C1172      C1178   1.403       .  A
C1172      C1173   1.416       .  A
C1173      C1175   1.402       .  A
C1173      C1174   1.404       .  A
C1174      H1181   1.084       .  S
C1175      C1176   1.397       .  A
C1175      H1182   1.083       .  S
C1176      C1177   1.404       .  A
C1176      H1183   1.084       .  S
C1177      C1178   1.403       .  A
C1178      H1184   1.085       .  S
C1185      C1186   1.407       .  A
C1185      C1190   1.409       .  A
C1186      C1187   1.391       .  A
C1186      H1195   1.083       .  S
C1187      C1188   1.398       .  A
C1187      H1196   1.084       .  S
C1188      C1194   1.400       .  A
C1188      C1189   1.414       .  A
C1189      C1191   1.406       .  A
C1189      C1190   1.413       .  A
C1190      H1197   1.084       .  S
C1191      C1192   1.404       .  A
C1191      H1198   1.083       .  S
C1192      C1193   1.406       .  A
C1192      H1199   1.083       .  S
C1193      C1194   1.402       .  A
C1194      H1200   1.080       .  S
C1201      C1202   1.404       .  A
C1201      C1206   1.406       .  A
C1202      C1203   1.396       .  A
C1203      C1204   1.402       .  A
C1203      H1212   1.084       .  S
C1204      C1210   1.402       .  A
C1204      C1205   1.414       .  A
C1205      C1207   1.403       .  A
C1205      C1206   1.405       .  A
C1206      H1213   1.084       .  S
C1207      C1208   1.399       .  A
C1207      H1214   1.083       .  S
C1208      C1209   1.404       .  A
C1208      H1215   1.083       .  S
C1209      C1210   1.405       .  A
C1210      H1216   1.084       .  S
C1217      C1218   1.408       .  A
C1217      C1222   1.408       .  A
C1218      C1219   1.392       .  A
C1218      H1227   1.083       .  S
C1219      C1220   1.397       .  A
C1219      H1228   1.084       .  S
C1220      C1226   1.403       .  A
C1220      C1221   1.416       .  A
C1221      C1223   1.404       .  A
C1221      C1222   1.414       .  A
C1222      H1229   1.084       .  S
C1223      C1224   1.403       .  A
C1223      H1230   1.084       .  S
C1224      C1225   1.407       .  A
C1224      H1231   1.083       .  S
C1225      C1226   1.403       .  A
C1226      H1232   1.084       .  S
C1233      C1234   1.405       .  A
C1233      C1238   1.404       .  A
C1234      C1235   1.402       .  A
C1234      H1243   1.083       .  S
C1235      C1236   1.405       .  A
C1235      H1244   1.083       .  S
C1236      C1242   1.407       .  A
C1236      C1237   1.414       .  A
C1237      C1239   1.400       .  A
C1237      C1238   1.399       .  A
C1238      H1245   1.085       .  S
C1239      C1240   1.393       .  A
C1239      H1246   1.084       .  S
C1240      C1241   1.403       .  A
C1241      C1242   1.407       .  A
C1242      H1248   1.084       .  S
C1249      C1250   1.401       .  A
C1249      C1254   1.405       .  A
C1250      C1251   1.393       .  A
C1250      H1259   1.084       .  S
C1251      C1252   1.401       .  A
C1251      H1260   1.084       .  S
C1252      C1258   1.398       .  A
C1252      C1253   1.414       .  A
C1253      C1255   1.404       .  A
C1253      C1254   1.406       .  A
C1254      H1261   1.084       .  S
C1255      C1256   1.401       .  A
C1255      H1262   1.084       .  S
C1256      C1257   1.405       .  A
C1256      H1263   1.083       .  S
C1257      C1258   1.406       .  A
C1258      H1264   1.085       .  S
