geometry optimzed in LAMMPS
_audit_creation_date              2020-12-01 
_audit_creation_method            'lammps2cif' 
_symmetry_space_group_name_H-M    'P1' 
_symmetry_Int_Tables_number       1 
_symmetry_cell_setting            triclinic 
loop_ 
_symmetry_equiv_pos_as_xyz 
  x,y,z 
_cell_length_a                    23.01093181 
_cell_length_b                    23.44006765958886 
_cell_length_c                    23.358518205646103 
_cell_angle_alpha                 90.1967912934975 
_cell_angle_beta                  90.47316350798968 
_cell_angle_gamma                 84.85141827514381 
loop_ 
_atom_site_label 
_atom_site_type_symbol 
_atom_site_fract_x 
_atom_site_fract_y 
_atom_site_fract_z 
_atom_site_charge 
C1          C  0.87470253  0.90193554  0.59556154    -0.03400
C2          C  0.47441985  0.49889009  0.59535949    -0.03400
C3          C  0.86702284  0.49985046  0.98339652    -0.03400
C4          C  0.47577837  0.90250424  0.98919343    -0.03800
C5          C  0.96656895  0.00561773  0.48513487    -0.03400
C6          C  0.98415369  0.38988368  0.08021127    -0.03400
C7          C  0.36139142  0.01471821  0.08461037    -0.03400
C8          C  0.38255491  0.39585614  0.48329848    -0.03400
Zr9        Zr  0.85768086  0.88277481  0.97155011     2.17500
O10         O  0.78638200  0.84727408  0.90546313    -0.52300
O11         O  0.86971722  0.77861900  0.98309774    -0.75500
O12         O  0.88823975  0.88456415  0.87039596    -0.82200
O13         O  0.74110866  0.92598374  0.08864539    -0.84000
O14         O  0.97218375  0.92810949  0.86125200    -0.79600
O15         O  0.75401472  0.90241051  0.99468002    -0.91200
O16         O  0.94881677  0.75345148  0.03900854    -0.77200
O17         O  0.96063842  0.86407022  0.98180756    -0.86700
O18         O  0.87337483  0.85814177  0.07018957    -0.86400
O19         O  0.89717818  0.97056714  0.94512726    -0.73100
O20         O  0.82088064  0.96360149  0.02745400    -0.85300
Zr21       Zr  0.98072199  0.00898974  0.10937686     2.26400
Zr22       Zr  0.00100920  0.95193882  0.95772341     2.06300
Zr23       Zr  0.83769252  0.94005120  0.12579084     2.10000
Zr24       Zr  0.97641360  0.84092059  0.08041092     1.78800
O25         O  0.76602672  0.00470591  0.17544405    -0.94100
O26         O  0.06656605  0.79235981  0.04364185    -0.41900
O27         O  0.94081378  0.92200065  0.13641091    -0.78500
O28         O  0.01942015  0.92588106  0.05590746    -0.97200
O29         O  0.96323738  0.03370346  0.01178871    -0.90500
O30         O  0.87753085  0.02785232  0.10062979    -0.93400
C31         C  0.90605007  0.74128032  0.00749752     1.00400
C32         C  0.72158844  0.91517180  0.03849923     1.13300
C33         C  0.92895430  0.90391068  0.84031732     1.04100
O34         O  0.07567878  0.88206467  0.91991525    -0.95500
O35         O  0.09519236  0.98211975  0.98856564    -0.91300
O36         O  0.08278805  0.00757086  0.08201213    -0.84400
C37         C  0.11463355  0.99719671  0.03756335     1.10700
O38         O  0.77361444  0.05942713  0.94045594    -0.97500
Zr39       Zr  0.85998366  0.04990851  0.00189539     1.88900
O40         O  0.96349960  0.11349131  0.10104257    -0.74100
O41         O  0.02462893  0.02911178  0.89475374    -0.53400
O42         O  0.87636500  0.09937858  0.91269811    -0.98100
O43         O  0.77768573  0.10553175  0.04643139    -0.55300
O44         O  0.90161079  0.13621386  0.02697919    -0.74700
C45         C  0.93679317  0.14950870  0.06619025     0.97700
O46         O  0.04028179  0.04897341  0.18390703    -0.63500
O47         O  0.81243913  0.85802983  0.18142970    -0.58300
O48         O  0.96158793  0.99065960  0.21004239    -0.95000
O49         O  0.87141246  0.96061955  0.22208630    -0.93400
O50         O  0.94957570  0.78258949  0.16035901    -0.93700
O51         O  0.05141610  0.82761662  0.15452473    -0.92500
C52         C  0.92004550  0.97566495  0.24166933     1.16500
H53         H  0.85356709  0.82516403  0.08084460     0.32500
H54         H  0.06008176  0.91428171  0.06312908     0.43300
H55         H  0.86318482  0.05887565  0.12546659     0.36900
H56         H  0.88633864  0.98224328  0.90669235     0.33300
H57         H  0.06986049  0.75432079  0.06229966     0.25100
H58         H  0.05445465  0.01102557  0.86846497     0.31100
H59         H  0.85784053  0.13877053  0.91825909     0.37000
H60         H  0.92982954  0.81025839  0.18757076     0.31400
H61         H  0.80001591  0.87415700  0.21906479     0.30300
H62         H  0.74130719  0.97918950  0.19605879     0.32000
H63         H  0.79516107  0.13277368  0.07251030     0.31000
H64         H  0.05980331  0.86693749  0.16537910     0.35000
H65         H  0.07160012  0.01850342  0.19308509     0.27700
H66         H  0.80788897  0.81653069  0.88285102     0.31900
H67         H  0.74667498  0.03354906  0.95733489     0.34800
H68         H  0.77613693  0.84628792  0.16368792     0.27400
H69         H  0.06048939  0.07937076  0.16515438     0.40300
H70         H  0.09977485  0.86939799  0.95361615     0.30300
H71         H  0.05789315  0.78412061  0.00301600     0.37900
H72         H  0.76051717  0.07818706  0.07217558     0.29800
H73         H  0.98950262  0.03760713  0.87040540     0.29800
H74         H  0.77647233  0.87872183  0.87787587     0.30100
Zr75       Zr  0.85926042  0.52726986  0.59704962     2.17500
O76         O  0.79652707  0.60314894  0.64304606    -0.52300
O77         O  0.87444744  0.51497969  0.70114791    -0.75500
O78         O  0.75716441  0.50273532  0.59663480    -0.82200
O79         O  0.96790282  0.63410496  0.54261193    -0.84000
O80         O  0.75204308  0.41078090  0.56663703    -0.79600
O81         O  0.87667735  0.62806100  0.57764078    -0.91200
O82         O  0.94120150  0.44010824  0.71933506    -0.77200
O83         O  0.87921868  0.42769341  0.61575919    -0.86700
O84         O  0.96202855  0.51126706  0.61294424    -0.86400
O85         O  0.82755747  0.47937716  0.51201783    -0.73100
O86         O  0.90530901  0.55350164  0.51071966    -0.85300
Zr87       Zr  0.99652888  0.38600417  0.46096751     2.26400
Zr88       Zr  0.84860033  0.37918625  0.53181807     2.06300
Zr89       Zr  0.00787506  0.53625370  0.52595893     2.10000
Zr90       Zr  0.98205012  0.41120378  0.62960148     1.78800
O91         O  0.04274055  0.59773541  0.45219107    -0.94100
O92         O  0.95717227  0.32367884  0.67588914    -0.41900
O93         O  0.02801649  0.43609277  0.54371162    -0.78500
O94         O  0.95168695  0.35976381  0.54865966    -0.97200
O95         O  0.89414466  0.40397661  0.44443292    -0.90500
O96         O  0.97875156  0.48639930  0.44210272    -0.93400
C97         C  0.90382168  0.48013420  0.73549872     1.00400
C98         C  0.91823327  0.65693628  0.55968634     1.13300
C99         C  0.72859972  0.45914530  0.58463505     1.04100
O100        O  0.81536339  0.31263276  0.60162340    -0.95500
O101        O  0.88059386  0.28177253  0.50560424    -0.91300
O102        O  0.96863166  0.28539314  0.46270737    -0.84400
C103        C  0.92637953  0.25771269  0.48166103     1.10700
O104        O  0.79737169  0.57944602  0.41193743    -0.97500
Zr105      Zr  0.87620661  0.50430476  0.42749507     1.88900
O106        O  0.98799254  0.40093272  0.35727855    -0.74100
O107        O  0.78338186  0.35154821  0.45601959    -0.53400
O108        O  0.79117993  0.47099257  0.37921944    -0.98100
O109        O  0.90494603  0.59008258  0.38052193    -0.55300
O110        O  0.91197716  0.46695178  0.33813107    -0.74700
C111        C  0.95390262  0.43105968  0.32287899     0.97700
O112        O  0.07293214  0.31797407  0.42245686    -0.63500
O113        O  0.06969995  0.57149712  0.60101288    -0.58300
O114        O  0.09895363  0.40752905  0.47130804    -0.95000
O115        O  0.10628403  0.49856472  0.50305692    -0.93400
O116        O  0.06173724  0.45179323  0.68044682    -0.93700
O117        O  0.06648028  0.34138941  0.63950467    -0.92500
C118        C  0.12873450  0.44966583  0.48544443     1.16500
H119        H  0.97422350  0.53382801  0.64483790     0.32500
H120        H  0.96246859  0.32050785  0.55930854     0.43300
H121        H  0.00056307  0.49765488  0.40953022     0.36900
H122        H  0.78725079  0.48902556  0.50173077     0.33300
H123        H  0.97775511  0.32295830  0.71330421     0.25100
H124        H  0.76190942  0.32122923  0.47330478     0.31100
H125        H  0.80493025  0.43320550  0.36284531     0.37000
H126        H  0.05267003  0.44889699  0.72162967     0.31400
H127        H  0.09766867  0.53839035  0.61101145     0.30300
H128        H  0.07786026  0.61286301  0.46911660     0.32000
H129        H  0.93940355  0.57694398  0.35730914     0.31000
H130        H  0.06996843  0.32224032  0.60167364     0.35000
H131        H  0.08123216  0.28873865  0.45263982     0.27700
H132        H  0.77400877  0.58371574  0.67190075     0.31900
H133        H  0.79287456  0.58302162  0.36984837     0.34800
H134        H  0.09355610  0.59845787  0.58134908     0.27400
H135        H  0.05424885  0.29773568  0.39094867     0.40300
H136        H  0.81644588  0.33298951  0.63876837     0.30300
H137        H  0.91539897  0.33114369  0.68565368     0.37900
H138        H  0.92068386  0.61313041  0.41166750     0.29800
H139        H  0.75381605  0.38467670  0.45186249     0.29800
H140        H  0.76738250  0.61654170  0.61348729     0.30100
Zr141      Zr  0.48491557  0.52087551  0.97227482     2.17500
O142        O  0.55346170  0.56352482  0.90946844    -0.52300
O143        O  0.47184895  0.62498640  0.98451475    -0.75500
O144        O  0.46020706  0.51241326  0.87091440    -0.82200
O145        O  0.60270722  0.48072283  0.08879196    -0.84000
O146        O  0.37372230  0.47434490  0.85753471    -0.79600
O147        O  0.58839416  0.50293583  0.99480023    -0.91200
O148        O  0.39393311  0.64990739  0.04101683    -0.77200
O149        O  0.38175776  0.53871667  0.97926557    -0.86700
O150        O  0.46788114  0.54630051  0.07002427    -0.86400
O151        O  0.44752708  0.43154183  0.94524604    -0.73100
O152        O  0.52340529  0.44069301  0.02810446    -0.85300
Zr153      Zr  0.36248581  0.39497376  0.10614627     2.26400
Zr154      Zr  0.34360321  0.44989113  0.95355662     2.06300
Zr155      Zr  0.50568624  0.46560410  0.12543516     2.10000
Zr156      Zr  0.36437864  0.56196908  0.07766256     1.78800
O157        O  0.57900905  0.40197196  0.17480942    -0.94100
O158        O  0.27597110  0.61142871  0.03700292    -0.41900
O159        O  0.40197742  0.48226421  0.13411345    -0.78500
O160        O  0.32298923  0.47638001  0.05132390    -0.97200
O161        O  0.38202212  0.36932446  0.00927369    -0.90500
O162        O  0.46600833  0.37720566  0.10072131    -0.93400
C163        C  0.43645802  0.66209750  0.01003983     1.00400
C164        C  0.62163198  0.49095466  0.03845418     1.13300
C165        C  0.42019149  0.49412190  0.83870187     1.04100
O166        O  0.26730238  0.51480761  0.91014588    -0.95500
O167        O  0.24976956  0.41866317  0.98182029    -0.91300
O168        O  0.26280540  0.38577331  0.07292234    -0.84400
C169        C  0.23112391  0.39730368  0.02808733     1.10700
O170        O  0.57088879  0.34778934  0.94172728    -0.97500
Zr171      Zr  0.48541939  0.35309969  0.00327859     1.88900
O172        O  0.37325752  0.29119963  0.09465714    -0.74100
O173        O  0.32547875  0.36770460  0.89409009    -0.53400
O174        O  0.47209785  0.29637357  0.91725843    -0.98100
O175        O  0.56857758  0.30263578  0.05250662    -0.55300
O176        O  0.44671294  0.26628501  0.03265586    -0.74700
C177        C  0.40547133  0.25429249  0.06553576     0.97700
O178        O  0.29556090  0.37982374  0.18403769    -0.63500
O179        O  0.53132311  0.54788002  0.18121284    -0.58300
O180        O  0.39101268  0.39445278  0.20720166    -0.95000
O181        O  0.46982284  0.44551265  0.22002435    -0.93400
O182        O  0.38563493  0.61915019  0.16130044    -0.93700
O183        O  0.28566306  0.56992955  0.14704938    -0.92500
C184        C  0.42862278  0.41747239  0.23887703     1.16500
H185        H  0.48732144  0.57938268  0.08119193     0.32500
H186        H  0.28179421  0.48535361  0.05751416     0.43300
H187        H  0.48008138  0.34675219  0.12641577     0.36900
H188        H  0.45903341  0.41843078  0.90752619     0.33300
H189        H  0.27277229  0.64966901  0.05545697     0.25100
H190        H  0.29702942  0.38318686  0.86478978     0.31100
H191        H  0.49326435  0.25851862  0.92517597     0.37000
H192        H  0.42565878  0.63021743  0.15539454     0.31400
H193        H  0.50184550  0.55240605  0.21191025     0.30300
H194        H  0.59328174  0.42535392  0.20645774     0.32000
H195        H  0.55172434  0.27782625  0.08103156     0.31000
H196        H  0.28353382  0.53037451  0.16113401     0.35000
H197        H  0.26399138  0.41132303  0.18098422     0.27700
H198        H  0.52966988  0.59125463  0.88505609     0.31900
H199        H  0.58621473  0.30695062  0.94107147     0.34800
H200        H  0.56809650  0.53441622  0.20119457     0.27400
H201        H  0.27692971  0.34459404  0.17405332     0.40300
H202        H  0.24405283  0.53092200  0.94283402     0.30300
H203        H  0.28580930  0.61899863  0.99671435     0.37900
H204        H  0.58578915  0.33251966  0.07551991     0.29800
H205        H  0.36218353  0.35858350  0.87279067     0.29800
H206        H  0.56848728  0.53259970  0.88305397     0.30100
Zr207      Zr  0.48867858  0.87795065  0.60431457     2.17500
O208        O  0.55628451  0.79853144  0.63742453    -0.52300
O209        O  0.47398434  0.88837397  0.70787912    -0.75500
O210        O  0.59049950  0.90481803  0.61229800    -0.82200
O211        O  0.38135387  0.77008573  0.54572195    -0.84000
O212        O  0.59541160  0.99542866  0.57951136    -0.79600
O213        O  0.46540525  0.77804923  0.59584928    -0.91200
O214        O  0.39776560  0.95399250  0.72542161    -0.77200
O215        O  0.46624726  0.97641866  0.62672516    -0.86700
O216        O  0.38507170  0.89129406  0.61535401    -0.86400
O217        O  0.52114046  0.92784770  0.52218711    -0.73100
O218        O  0.44546202  0.85159538  0.51510717    -0.85300
Zr219      Zr  0.35233201  0.02074118  0.46943277     2.26400
Zr220      Zr  0.49845641  0.02712777  0.54572420     2.06300
Zr221      Zr  0.34202403  0.86737063  0.52537203     2.10000
Zr222      Zr  0.36283068  0.99037442  0.63596270     1.78800
O223        O  0.31294053  0.81310737  0.44234106    -0.94100
O224        O  0.38628367  0.07488870  0.68929803    -0.41900
O225        O  0.32115642  0.96605840  0.54758181    -0.78500
O226        O  0.39520961  0.04532077  0.55965559    -0.97200
O227        O  0.45503206  0.00397447  0.45609626    -0.90500
O228        O  0.37161993  0.92129075  0.44546404    -0.93400
C229        C  0.43912518  0.91791374  0.74181423     1.00400
C230        C  0.42644760  0.74841254  0.57325588     1.13300
C231        C  0.61905107  0.94832830  0.60024241     1.04100
O232        O  0.52715576  0.08721598  0.62445341    -0.95500
O233        O  0.46656185  0.12436137  0.51905651    -0.91300
O234        O  0.37563252  0.12128563  0.48073698    -0.84400
C235        C  0.41855133  0.14854586  0.49910064     1.10700
O236        O  0.55335792  0.82883237  0.42153371    -0.97500
Zr237      Zr  0.47464029  0.90447567  0.43496958     1.88900
O238        O  0.36626539  0.01313228  0.36588313    -0.74100
O239        O  0.56602482  0.06214668  0.47731228    -0.53400
O240        O  0.55997820  0.94036859  0.39123894    -0.98100
O241        O  0.44773048  0.82098244  0.38173086    -0.55300
O242        O  0.43957291  0.94494347  0.34610821    -0.74700
C243        C  0.39980286  0.98351423  0.33094169     0.97700
O244        O  0.27822482  0.08749376  0.42458264    -0.63500
O245        O  0.27360366  0.82425768  0.58762987    -0.58300
O246        O  0.24962605  0.00151017  0.48369645    -0.95000
O247        O  0.24280641  0.90825407  0.50724998    -0.93400
O248        O  0.27831049  0.95706729  0.68333696    -0.93700
O249        O  0.27700140  0.05920332  0.63846200    -0.92500
C250        C  0.21983017  0.95892489  0.49573735     1.16500
H251        H  0.37246923  0.86759574  0.64580379     0.32500
H252        H  0.38405657  0.08369937  0.57292996     0.43300
H253        H  0.35075690  0.91161641  0.41121515     0.36900
H254        H  0.56191355  0.91869765  0.51405930     0.33300
H255        H  0.36280669  0.07443145  0.72459754     0.25100
H256        H  0.59092921  0.08595534  0.50038674     0.31100
H257        H  0.54624758  0.97896098  0.37684011     0.37000
H258        H  0.26298957  0.92969895  0.65590669     0.31400
H259        H  0.25928211  0.79278295  0.56458841     0.30300
H260        H  0.27077507  0.80949675  0.44756785     0.32000
H261        H  0.41566949  0.83556200  0.35569020     0.31000
H262        H  0.27022287  0.07084124  0.59806266     0.35000
H263        H  0.26376919  0.11388237  0.45557297     0.27700
H264        H  0.57502812  0.81268709  0.67237359     0.31900
H265        H  0.56278412  0.82922031  0.38024363     0.34800
H266        H  0.29766149  0.80467712  0.61828213     0.27400
H267        H  0.29963532  0.11138693  0.39862514     0.40300
H268        H  0.49230781  0.11400278  0.63204059     0.30300
H269        H  0.42703769  0.06579662  0.70251835     0.37900
H270        H  0.42877963  0.79772744  0.41021691     0.29800
H271        H  0.59218821  0.02798412  0.46668492     0.29800
H272        H  0.58768464  0.79428225  0.60857330     0.30100
C273        C  0.22879443  0.46854624  0.52099805    -0.14300
C274        C  0.19311605  0.44050430  0.48284536     0.07900
C275        C  0.21934382  0.40171559  0.44330059    -0.14300
C276        C  0.27969301  0.38997147  0.44253490    -0.14300
C277        C  0.31639312  0.41568583  0.48214743     0.07900
C278        C  0.28963287  0.45621718  0.52087317    -0.14300
H279        H  0.20949557  0.49865639  0.55224038     0.11900
H280        H  0.19302027  0.37975257  0.41317535     0.11900
H281        H  0.29729239  0.35810702  0.41238238     0.11900
H282        H  0.31496807  0.47744178  0.55225615     0.11900
C283        C  0.41197010  0.45435862  0.39653722    -0.14300
C284        C  0.40415992  0.40055871  0.42081700     0.07900
C285        C  0.40672237  0.35257054  0.38323982    -0.14300
C286        C  0.41565033  0.35825592  0.32474179    -0.14300
C287        C  0.42340020  0.41167930  0.30140337     0.07900
C288        C  0.42262519  0.45963161  0.33774070    -0.14300
H289        H  0.40820112  0.49263770  0.42278859     0.11900
H290        H  0.39790008  0.31052148  0.39777414     0.11900
H291        H  0.41540875  0.32083149  0.29739283     0.11900
H292        H  0.42757584  0.50160670  0.32017808     0.11900
C293        C  0.45019692  0.30467167  0.50005787    -0.14300
C294        C  0.39345191  0.33289028  0.50367488     0.07900
C295        C  0.34740020  0.29906274  0.51680215    -0.14300
C296        C  0.35560154  0.23938642  0.51417762    -0.14300
C297        C  0.41068795  0.21174250  0.50233380     0.07900
C298        C  0.45860662  0.24473440  0.49889397    -0.14300
H299        H  0.48720996  0.32899851  0.49237736     0.11900
H300        H  0.30389117  0.31796568  0.52581810     0.11900
H301        H  0.31864292  0.21477711  0.52121110     0.11900
H302        H  0.50218803  0.22428506  0.49256083     0.11900
C303        C  0.32553401  0.12126619  0.07233090    -0.14300
C304        C  0.37178897  0.07710901  0.07095542     0.07900
C305        C  0.42929298  0.09314443  0.06800209    -0.14300
C306        C  0.44005643  0.15068726  0.06564872    -0.14300
C307        C  0.39387162  0.19382922  0.06856281     0.07900
C308        C  0.33656485  0.17875631  0.07171909    -0.14300
H309        H  0.28068505  0.11188380  0.07723442     0.11900
H310        H  0.46621654  0.06109321  0.06907638     0.11900
H311        H  0.48474116  0.16156865  0.06328415     0.11900
H312        H  0.30023740  0.21148264  0.07359266     0.11900
C313        C  0.42273798  0.95611628  0.22965892    -0.14300
C314        C  0.39210023  0.99308537  0.26878672     0.07900
C315        C  0.35353379  0.03782610  0.24783185    -0.14300
C316        C  0.34487564  0.04467674  0.18906432    -0.14300
C317        C  0.37462394  0.00710644  0.14919836     0.07900
C318        C  0.41429932  0.96297702  0.17087486    -0.14300
H319        H  0.45280968  0.92093601  0.24438402     0.11900
H320        H  0.32931889  0.06710151  0.27678999     0.11900
H321        H  0.31318509  0.07858531  0.17492398     0.11900
H322        H  0.43819899  0.93253079  0.14304502     0.11900
C323        C  0.26117042  0.98085047  0.11066779    -0.14300
C324        C  0.29842797  0.00200665  0.06969100     0.07900
C325        C  0.27523795  0.01443385  0.01438893    -0.14300
C326        C  0.21555912  0.01227360  0.00282878    -0.14300
C327        C  0.17814041  0.99725316  0.04625237     0.07900
C328        C  0.20192653  0.97967077  0.09943169    -0.14300
H329        H  0.27677791  0.96629252  0.15232860     0.11900
H330        H  0.30288312  0.02894897  0.98113705     0.11900
H331        H  0.19840610  0.02430696  0.96084591     0.11900
H332        H  0.17445819  0.96489220  0.13275383     0.11900
C333        C  0.92090042  0.41224966  0.16697615    -0.14300
C334        C  0.97657384  0.41215629  0.14197035     0.07900
C335        C  0.02375371  0.42525300  0.17739234    -0.14300
C336        C  0.01691047  0.42997647  0.23666418    -0.14300
C337        C  0.96236176  0.42483625  0.26113587     0.07900
C338        C  0.91399490  0.41841099  0.22578733    -0.14300
H339        H  0.88331458  0.40353383  0.14121895     0.11900
H340        H  0.06662008  0.42954500  0.16038491     0.11900
H341        H  0.05405041  0.43793123  0.26338007     0.11900
H342        H  0.87109873  0.41613960  0.24398572     0.11900
C343        C  0.06663475  0.42588982  0.01758085    -0.14300
C344        C  0.04808655  0.38838066  0.05960169     0.07900
C345        C  0.09103125  0.34906426  0.08478974    -0.14300
C346        C  0.14989486  0.34972880  0.07174345    -0.14300
C347        C  0.16826078  0.38938447  0.03268489     0.07900
C348        C  0.12598914  0.42634773  0.00440402    -0.14300
H349        H  0.03603356  0.45657805  0.99624427     0.11900
H350        H  0.07972001  0.31942436  0.11726395     0.11900
H351        H  0.18143150  0.32055135  0.09409913     0.11900
H352        H  0.13905691  0.45777309  0.97433681     0.11900
C353        C  0.95158285  0.30341836  0.02488574    -0.14300
C354        C  0.96666382  0.32789369  0.07740309     0.07900
C355        C  0.97260380  0.29159536  0.12607999    -0.14300
C356        C  0.96336250  0.23386126  0.12242212    -0.14300
C357        C  0.94719243  0.21045128  0.07033196     0.07900
C358        C  0.94093967  0.24574153  0.02163888    -0.14300
H359        H  0.94862159  0.32874213  0.98614271     0.11900
H360        H  0.98680341  0.30690058  0.16714746     0.11900
H361        H  0.96882527  0.20754049  0.16045917     0.11900
H362        H  0.92922202  0.22833540  0.98054807     0.11900
C363        C  0.97691324  0.10439165  0.44148515    -0.14300
C364        C  0.95023250  0.07155567  0.48325926     0.07900
C365        C  0.91175211  0.10148547  0.52179698    -0.14300
C366        C  0.90255591  0.16170733  0.51982331    -0.14300
C367        C  0.93194423  0.19379403  0.47983140     0.07900
C368        C  0.96872995  0.16414956  0.44043260    -0.14300
H369        H  0.00703296  0.08375236  0.41095196     0.11900
H370        H  0.88982617  0.07888102  0.55434752     0.11900
H371        H  0.87384283  0.18335444  0.55109270     0.11900
H372        H  0.99184509  0.18720496  0.40904535     0.11900
C373        C  0.05824479  0.93573315  0.49859628    -0.14300
C374        C  0.03209460  0.99254755  0.50145347     0.07900
C375        C  0.06935674  0.03619658  0.51311654    -0.14300
C376        C  0.12989719  0.02520963  0.51043187    -0.14300
C377        C  0.15546821  0.96966734  0.50013381     0.07900
C378        C  0.11914380  0.92452423  0.49736316    -0.14300
H379        H  0.03145487  0.90051459  0.49218452     0.11900
H380        H  0.05256184  0.07981798  0.52188354     0.11900
H381        H  0.15676562  0.06046481  0.51636400     0.11900
H382        H  0.13765838  0.88075983  0.49176467     0.11900
C383        C  0.99961275  0.97327646  0.38346379    -0.14300
C384        C  0.95418329  0.98463801  0.42360961     0.07900
C385        C  0.89622391  0.98777848  0.40252082    -0.14300
C386        C  0.88447179  0.98243211  0.34372086    -0.14300
C387        C  0.93041308  0.97470699  0.30439520     0.07900
C388        C  0.98781761  0.96838665  0.32524630    -0.14300
H389        H  0.04505818  0.97286872  0.39533022     0.11900
H390        H  0.86004053  0.99766414  0.43131402     0.11900
H391        H  0.83962730  0.98731248  0.32879888     0.11900
H392        H  0.02421813  0.96175843  0.29611326     0.11900
C393        C  0.43464139  0.94251001  0.02250446    -0.14200
C394        C  0.40095675  0.97507495  0.04925527    -0.15800
C395        C  0.51327911  0.79687702  0.00418309    -0.14300
C396        C  0.46624895  0.84021071  0.00400506     0.07900
C397        C  0.40906102  0.82306231  0.00527317    -0.14300
C398        C  0.39938087  0.76521489  0.00739210    -0.14300
C399        C  0.44647963  0.72290383  0.00612618     0.07900
C400        C  0.50341562  0.73915408  0.00491510    -0.14300
H401        H  0.55800812  0.80700209  0.00045757     0.11900
H402        H  0.37163128  0.85445841  0.00280344     0.11900
H403        H  0.35493689  0.75345428  0.00844839     0.11900
H404        H  0.54042834  0.70713572  0.00461860     0.11900
C405        C  0.61991243  0.90538293  0.07249546    -0.14300
C406        C  0.65794636  0.92012876  0.02944403     0.07900
C407        C  0.63480366  0.93960267  0.97668863    -0.14300
C408        C  0.57538342  0.93941718  0.96513828    -0.14300
C409        C  0.53785776  0.91710977  0.00524936     0.07900
C410        C  0.56028310  0.90443616  0.06068122    -0.14300
H411        H  0.63665090  0.89180349  0.11421069     0.11900
H412        H  0.66295898  0.95414033  0.94384501     0.11900
H413        H  0.55984577  0.95478581  0.92370542     0.11900
H414        H  0.53234054  0.88945680  0.09343511     0.11900
C415        C  0.41914797  0.94406804  0.90037007    -0.14300
C416        C  0.46429706  0.90693892  0.92425463     0.07900
C417        C  0.49916484  0.87108873  0.88660616    -0.14300
C418        C  0.49074722  0.87373318  0.82756246    -0.14300
C419        C  0.44674654  0.91184259  0.80428538     0.07900
C420        C  0.41055165  0.94636241  0.84137241    -0.14300
H421        H  0.39026913  0.97180602  0.92665042     0.11900
H422        H  0.53446405  0.84192091  0.90282375     0.11900
H423        H  0.51922571  0.84651191  0.80023384     0.11900
H424        H  0.37572073  0.97609401  0.82488386     0.11900
C425        C  0.90863546  0.46024183  0.01734139    -0.14200
C426        C  0.94320803  0.42832437  0.04430538    -0.15800
C427        C  0.91709414  0.45022095  0.89482355    -0.14300
C428        C  0.87727593  0.49304482  0.91824672     0.07900
C429        C  0.84593805  0.53121021  0.87967149    -0.14300
C430        C  0.85475630  0.52761554  0.82075869    -0.14300
C431        C  0.89458302  0.48518397  0.79805390     0.07900
C432        C  0.92538389  0.44631487  0.83577390    -0.14300
H433        H  0.94193049  0.41917331  0.92152181     0.11900
H434        H  0.81348473  0.56371474  0.89483994     0.11900
H435        H  0.82990422  0.55783185  0.79301769     0.11900
H436        H  0.95620634  0.41249511  0.81975804     0.11900
C437        C  0.76441620  0.46836612  0.96009628    -0.14300
C438        C  0.80480583  0.48685079  0.00035544     0.07900
C439        C  0.78505775  0.49798458  0.05685390    -0.14300
C440        C  0.72580172  0.49758439  0.07045254    -0.14300
C441        C  0.68518032  0.48574015  0.02791258     0.07900
C442        C  0.70548693  0.46913183  0.97334450    -0.14300
H443        H  0.77720894  0.45513879  0.91734011     0.11900
H444        H  0.81507808  0.51053821  0.08954369     0.11900
H445        H  0.71144528  0.50916584  0.11331208     0.11900
H446        H  0.67545824  0.45726187  0.94031782     0.11900
C447        C  0.93427449  0.57974915  0.00122101    -0.14300
C448        C  0.87714960  0.56251879  0.99746939     0.07900
C449        C  0.83025792  0.60596761  0.99568479    -0.14300
C450        C  0.84004144  0.66370560  0.99678531    -0.14300
C451        C  0.89674916  0.68018018  0.00153472     0.07900
C452        C  0.94383165  0.63775976  0.00456937    -0.14300
H453        H  0.97174276  0.54839231  0.00046989     0.11900
H454        H  0.78561502  0.59578063  0.99036996     0.11900
H455        H  0.80296409  0.69558057  0.99471885     0.11900
H456        H  0.98817567  0.64953086  0.00822054     0.11900
C457        C  0.41591541  0.43232682  0.52280695    -0.14200
C458        C  0.44171634  0.46257208  0.55526758    -0.15800
C459        C  0.57573545  0.52807516  0.56394070    -0.14300
C460        C  0.54043373  0.48551951  0.58272082     0.07900
C461        C  0.56868159  0.43079273  0.59505519    -0.14300
C462        C  0.62987416  0.42188934  0.59673136    -0.14300
C463        C  0.66412309  0.46721729  0.58525311     0.07900
C464        C  0.63634692  0.51966053  0.56714959    -0.14300
H465        H  0.55722537  0.56908493  0.54823436     0.11900
H466        H  0.54331125  0.39613310  0.60737541     0.11900
H467        H  0.65036811  0.38010750  0.60841435     0.11900
H468        H  0.66170689  0.55415991  0.55427998     0.11900
C469        C  0.40182625  0.48719126  0.67659605    -0.14300
C470        C  0.46040536  0.48506479  0.65823716     0.07900
C471        C  0.50436883  0.48335963  0.70108590    -0.14300
C472        C  0.49051180  0.48636159  0.75878592    -0.14300
C473        C  0.43232334  0.49070837  0.77660628     0.07900
C474        C  0.38799450  0.48914748  0.73510915    -0.14300
H475        H  0.36655612  0.49016046  0.64553280     0.11900
H476        H  0.54991770  0.48462202  0.69093821     0.11900
H477        H  0.52593733  0.48622813  0.78963998     0.11900
H478        H  0.34267307  0.49164988  0.74776295     0.11900
C479        C  0.40622932  0.64815004  0.54284089    -0.14300
C480        C  0.43465790  0.68511693  0.57928394     0.07900
C481        C  0.47219608  0.66109622  0.62181629    -0.14300
C482        C  0.48233848  0.60204201  0.62718033    -0.14300
C483        C  0.45648891  0.56403035  0.58938812     0.07900
C484        C  0.41706398  0.58826804  0.54767052    -0.14300
H485        H  0.37665036  0.66551948  0.50968894     0.11900
H486        H  0.49436184  0.68802264  0.65103491     0.11900
H487        H  0.51320506  0.58606880  0.65970396     0.11900
H488        H  0.39542280  0.56147600  0.51801806     0.11900
C489        C  0.90545945  0.94279914  0.55846756    -0.14200
C490        C  0.93143904  0.97363203  0.52697404    -0.15800
C491        C  0.84137912  0.80701069  0.55288663    -0.14300
C492        C  0.88656981  0.84115811  0.56902411     0.07900
C493        C  0.94412936  0.81448066  0.56947092    -0.14300
C494        C  0.95468162  0.75486140  0.56423481    -0.14300
C495        C  0.90809955  0.72041989  0.55761029     0.07900
C496        C  0.85178406  0.74733134  0.54909526    -0.14300
H497        H  0.79702930  0.82531588  0.54661813     0.11900
H498        H  0.98044849  0.83922318  0.57956874     0.11900
H499        H  0.99897385  0.73548086  0.56898966     0.11900
H500        H  0.81544983  0.72207368  0.54068628     0.11900
C501        C  0.91422893  0.95105956  0.68536450    -0.14300
C502        C  0.89968036  0.90067254  0.65761820     0.07900
C503        C  0.89963708  0.85039434  0.69153019    -0.14300
C504        C  0.91025911  0.85122941  0.75035558    -0.14300
C505        C  0.92355553  0.90160087  0.77734783     0.07900
C506        C  0.92730340  0.95112615  0.74422021    -0.14300
H507        H  0.91364760  0.99093023  0.66204433     0.11900
H508        H  0.88768786  0.81046395  0.67357687     0.11900
H509        H  0.90699216  0.81260949  0.77504102     0.11900
H510        H  0.93709314  0.99079324  0.76453898     0.11900
C511        C  0.77317163  0.88836822  0.63689330    -0.14300
C512        C  0.80797537  0.91982934  0.60076688     0.07900
C513        C  0.77893004  0.96557153  0.56961880    -0.14300
C514        C  0.71795155  0.97669649  0.57203885    -0.14300
C515        C  0.68388382  0.94247237  0.60537787     0.07900
C516        C  0.71251124  0.89914750  0.63876922    -0.14300
H517        H  0.79213026  0.85256306  0.66156900     0.11900
H518        H  0.80255843  0.99185296  0.54170067     0.11900
H519        H  0.69723756  0.01061141  0.54553068     0.11900
H520        H  0.68782467  0.87215421  0.66507172     0.11900
loop_ 
_geom_bond_atom_site_label_1 
_geom_bond_atom_site_label_2 
_geom_bond_distance 
_geom_bond_site_symmetry_2 
_ccdc_geom_bond_type 
C1          C489   1.519       .  S
C1          C492   1.554       .  S
C1          C502   1.554       .  S
C1          C512   1.561       .  S
C2          C458   1.505       .  S
C2          C460   1.554       .  S
C2          C470   1.548       .  S
C2          C483   1.552       .  S
C3          C425   1.497   1_556  S
C3          C428   1.547       .  S
C3          C438   1.545   1_556  S
C3          C448   1.542       .  S
C4          C393   1.493   1_556  S
C4          C396   1.537   1_556  S
C4          C409   1.542   1_556  S
C4          C416   1.540       .  S
C5          C490   1.516   1_545  S
C5          C364   1.558       .  S
C5          C374   1.556   1_645  S
C5          C384   1.550   1_545  S
C6          C426   1.498       .  S
C6          C334   1.538       .  S
C6          C344   1.549   1_655  S
C6          C354   1.543       .  S
C7          C394   1.493   1_545  S
C7          C304   1.538       .  S
C7          C317   1.544       .  S
C7          C324   1.542       .  S
C8          C457   1.507       .  S
C8          C277   1.551       .  S
C8          C284   1.553       .  S
C8          C294   1.551       .  S
Zr9          O10   2.442       .  S
Zr9          O11   2.448       .  S
Zr9          O12   2.472       .  S
Zr9          O15   2.453       .  S
Zr9          O17   2.381       .  S
Zr9          O18   2.394   1_556  S
Zr9          O19   2.407       .  S
Zr9          O20   2.393   1_556  S
O10          H66   0.990       .  S
O10          H74   0.991       .  S
O11          C31   1.286   1_556  A
O12          C33   1.291       .  A
O13         Zr23   2.429       .  S
O13          C32   1.284       .  A
O14         Zr22   2.421   1_655  S
O14          C33   1.281       .  A
O15          C32   1.290   1_556  A
O16         Zr24   2.398       .  S
O16          C31   1.276       .  A
O17         Zr22   2.404   1_655  S
O17         Zr24   2.385   1_556  S
O18         Zr23   2.401       .  S
O18         Zr24   2.379       .  S
O18          H53   0.966       .  S
O19         Zr22   2.406   1_655  S
O19         Zr39   2.380   1_566  S
O19          H56   0.964       .  S
O20         Zr23   2.385       .  S
O20         Zr39   2.367   1_565  S
Zr21         O46   2.443   1_655  S
Zr21         O40   2.454       .  S
Zr21         O48   2.442   1_545  S
Zr21         O36   2.436   1_655  S
Zr21         O27   2.399   1_545  S
Zr21         O28   2.416   1_645  S
Zr21         O29   2.376       .  S
Zr21         O30   2.383       .  S
Zr22         O41   2.437   1_565  S
Zr22         O34   2.434       .  S
Zr22         O35   2.442       .  S
Zr22         O28   2.400   1_556  S
Zr22         O29   2.393   1_466  S
Zr23         O25   2.436   1_565  S
Zr23         O47   2.440       .  S
Zr23         O49   2.434       .  S
Zr23         O27   2.384       .  S
Zr23         O30   2.404   1_565  S
Zr24         O50   2.434       .  S
Zr24         O51   2.435   1_655  S
Zr24         O26   2.436   1_655  S
Zr24         O27   2.391       .  S
Zr24         O28   2.376   1_655  S
O25          H62   0.990   1_545  S
O26          H57   0.990       .  S
O26          H71   0.990       .  S
O28          H54   0.964       .  S
O29         Zr39   2.382       .  S
O30         Zr39   2.388       .  S
O30          H55   0.965       .  S
C31         C451   1.473       .  S
C32         C406   1.472       .  S
C33         C505   1.476       .  S
O34          H70   0.990       .  S
O35          C37   1.285   1_556  A
O36          C37   1.286   1_545  A
C37         C327   1.474       .  S
O38         Zr39   2.436   1_556  S
O38          H67   0.990       .  S
Zr39         O42   2.436   1_554  S
Zr39         O43   2.439       .  S
Zr39         O44   2.384       .  S
O40          C45   1.287       .  A
O41          H58   0.990       .  S
O41          H73   0.990   1_455  S
O42          H59   0.990       .  S
O43          H63   0.990       .  S
O43          H72   0.990       .  S
O44          C45   1.274       .  A
C45         C357   1.472       .  S
O46          H65   0.991       .  S
O46          H69   0.990       .  S
O47          H61   0.990       .  S
O47          H68   0.990       .  S
O48          C52   1.287       .  A
O49          C52   1.283       .  A
O50          H60   0.990       .  S
O51          H64   0.990       .  S
C52         C387   1.482       .  S
Zr75         O76   2.440       .  S
Zr75         O77   2.468       .  S
Zr75         O78   2.468       .  S
Zr75         O81   2.476       .  S
Zr75         O83   2.379       .  S
Zr75         O84   2.387       .  S
Zr75         O85   2.418       .  S
Zr75         O86   2.393       .  S
O76         H132   0.990       .  S
O76         H140   0.990       .  S
O77          C97   1.290       .  A
O78          C99   1.292       .  A
O79         Zr89   2.425   1_655  S
O79          C98   1.284       .  A
O80         Zr88   2.424       .  S
O80          C99   1.282       .  A
O81          C98   1.293       .  A
O82         Zr90   2.376       .  S
O82          C97   1.273       .  A
O83         Zr88   2.396       .  S
O83         Zr90   2.383       .  S
O84         Zr89   2.396   1_655  S
O84         Zr90   2.382       .  S
O84         H119   0.966       .  S
O85         Zr88   2.401       .  S
O85        Zr105   2.378       .  S
O85         H122   0.963       .  S
O86         Zr89   2.382   1_655  S
O86        Zr105   2.379       .  S
Zr87        O112   2.441   1_655  S
Zr87        O106   2.452       .  S
Zr87        O114   2.464   1_655  S
Zr87        O102   2.500       .  S
Zr87         O93   2.399   1_655  S
Zr87         O94   2.408       .  S
Zr87         O95   2.384       .  S
Zr87         O96   2.394       .  S
Zr88        O107   2.435       .  S
Zr88        O100   2.435       .  S
Zr88        O101   2.414       .  S
Zr88         O94   2.404       .  S
Zr88         O95   2.399       .  S
Zr89         O91   2.437       .  S
Zr89        O113   2.437       .  S
Zr89        O115   2.419       .  S
Zr89         O93   2.389       .  S
Zr89         O96   2.399   1_455  S
Zr90        O116   2.439   1_655  S
Zr90        O117   2.435   1_655  S
Zr90         O92   2.438       .  S
Zr90         O93   2.374   1_655  S
Zr90         O94   2.373       .  S
O91         H128   0.990       .  S
O92         H123   0.990       .  S
O92         H137   0.990       .  S
O94         H120   0.964       .  S
O95        Zr105   2.385       .  S
O96        Zr105   2.381       .  S
O96         H121   0.965   1_655  S
C97         C431   1.481       .  S
C98         C495   1.486       .  S
C99         C463   1.479       .  S
O100        H136   0.990       .  S
O101        C103   1.281       .  A
O102        C103   1.298       .  A
C103        C367   1.493       .  S
O104       Zr105   2.438       .  S
O104        H133   0.991       .  S
Zr105       O108   2.437       .  S
Zr105       O109   2.439       .  S
Zr105       O110   2.385       .  S
O106        C111   1.286       .  A
O107        H124   0.990       .  S
O107        H139   0.990       .  S
O108        H125   0.990       .  S
O109        H129   0.990       .  S
O109        H138   0.990       .  S
O110        C111   1.274       .  A
C111        C337   1.462       .  S
O112        H131   0.990       .  S
O112        H135   0.990       .  S
O113        H127   0.990       .  S
O113        H134   0.990       .  S
O114        C118   1.292       .  A
O115        C118   1.282       .  A
O116        H126   0.990       .  S
O117        H130   0.990       .  S
C118        C274   1.479       .  S
Zr141       O142   2.444       .  S
Zr141       O143   2.448       .  S
Zr141       O144   2.442       .  S
Zr141       O147   2.434       .  S
Zr141       O149   2.380       .  S
Zr141       O150   2.384   1_556  S
Zr141       O151   2.414       .  S
Zr141       O152   2.391   1_556  S
O142        H198   0.990       .  S
O142        H206   0.991       .  S
O143        C163   1.286   1_556  A
O144        C165   1.286       .  A
O145       Zr155   2.453       .  S
O145        C164   1.288       .  A
O146       Zr154   2.438       .  S
O146        C165   1.285       .  A
O147        C164   1.286   1_556  A
O148       Zr156   2.391       .  S
O148        C163   1.275       .  A
O149       Zr154   2.404       .  S
O149       Zr156   2.389   1_556  S
O150       Zr155   2.390       .  S
O150       Zr156   2.385       .  S
O150        H185   0.964       .  S
O151       Zr154   2.401       .  S
O151       Zr171   2.385   1_556  S
O151        H188   0.963       .  S
O152       Zr155   2.375       .  S
O152       Zr171   2.371       .  S
Zr153       O178   2.441       .  S
Zr153       O172   2.437       .  S
Zr153       O180   2.445       .  S
Zr153       O168   2.443       .  S
Zr153       O159   2.399       .  S
Zr153       O160   2.407       .  S
Zr153       O161   2.375       .  S
Zr153       O162   2.386       .  S
Zr154       O173   2.435       .  S
Zr154       O166   2.435       .  S
Zr154       O167   2.438       .  S
Zr154       O160   2.404   1_556  S
Zr154       O161   2.396   1_556  S
Zr155       O157   2.435       .  S
Zr155       O179   2.437       .  S
Zr155       O181   2.427       .  S
Zr155       O159   2.394       .  S
Zr155       O162   2.405       .  S
Zr156       O182   2.436       .  S
Zr156       O183   2.435       .  S
Zr156       O158   2.437       .  S
Zr156       O159   2.384       .  S
Zr156       O160   2.374       .  S
O157        H194   0.990       .  S
O158        H189   0.990       .  S
O158        H203   0.990   1_554  S
O160        H186   0.964       .  S
O161       Zr171   2.381       .  S
O162       Zr171   2.380       .  S
O162        H187   0.966       .  S
C163        C399   1.467       .  S
C164        C441   1.479       .  S
C165        C473   1.480       .  S
O166        H202   0.990       .  S
O167        C169   1.286   1_556  A
O168        C169   1.287       .  A
C169        C347   1.480       .  S
O170       Zr171   2.440   1_556  S
O170        H199   0.990       .  S
Zr171       O174   2.438   1_554  S
Zr171       O175   2.439       .  S
Zr171       O176   2.398       .  S
O172        C177   1.284       .  A
O173        H190   0.990       .  S
O173        H205   0.990       .  S
O174        H191   0.990       .  S
O175        H195   0.990       .  S
O175        H204   0.990       .  S
O176        C177   1.277       .  A
C177        C307   1.468       .  S
O178        H197   0.991       .  S
O178        H201   0.990       .  S
O179        H193   0.990       .  S
O179        H200   0.990       .  S
O180        C184   1.288       .  A
O181        C184   1.283       .  A
O182        H192   0.990       .  S
O183        H196   0.990       .  S
C184        C287   1.474       .  S
Zr207       O208   2.440       .  S
Zr207       O209   2.454       .  S
Zr207       O210   2.486       .  S
Zr207       O213   2.456       .  S
Zr207       O215   2.377       .  S
Zr207       O216   2.392       .  S
Zr207       O217   2.409       .  S
Zr207       O218   2.404       .  S
O208        H264   0.990       .  S
O208        H272   0.990       .  S
O209        C229   1.288       .  A
O210        C231   1.295       .  A
O211       Zr221   2.424       .  S
O211        C230   1.283       .  A
O212       Zr220   2.415   1_565  S
O212        C231   1.281       .  A
O213        C230   1.291       .  A
O214       Zr222   2.367       .  S
O214        C229   1.273       .  A
O215       Zr220   2.396   1_565  S
O215       Zr222   2.384       .  S
O216       Zr221   2.402       .  S
O216       Zr222   2.381       .  S
O216        H251   0.966       .  S
O217       Zr220   2.402   1_565  S
O217       Zr237   2.378       .  S
O217        H254   0.964       .  S
O218       Zr221   2.390       .  S
O218       Zr237   2.383       .  S
Zr219       O244   2.441       .  S
Zr219       O238   2.446       .  S
Zr219       O246   2.471       .  S
Zr219       O234   2.476       .  S
Zr219       O225   2.386   1_545  S
Zr219       O226   2.410       .  S
Zr219       O227   2.383       .  S
Zr219       O228   2.399   1_545  S
Zr220       O239   2.434       .  S
Zr220       O232   2.435       .  S
Zr220       O233   2.413       .  S
Zr220       O226   2.400       .  S
Zr220       O227   2.394       .  S
Zr221       O223   2.438       .  S
Zr221       O245   2.439       .  S
Zr221       O247   2.430       .  S
Zr221       O225   2.376       .  S
Zr221       O228   2.395       .  S
Zr222       O248   2.435       .  S
Zr222       O249   2.436   1_565  S
Zr222       O224   2.435   1_565  S
Zr222       O225   2.359       .  S
Zr222       O226   2.367   1_565  S
O223        H260   0.990       .  S
O224        H255   0.990       .  S
O224        H269   0.990       .  S
O226        H252   0.964       .  S
O227       Zr237   2.386   1_545  S
O228       Zr237   2.383       .  S
O228        H253   0.966       .  S
C229        C419   1.474       .  S
C230        C480   1.486       .  S
C231        C515   1.490       .  S
O232        H268   0.990       .  S
O233        C235   1.281       .  A
O234        C235   1.293       .  A
C235        C297   1.478       .  S
O236       Zr237   2.440       .  S
O236        H265   0.991       .  S
Zr237       O240   2.438       .  S
Zr237       O241   2.439       .  S
Zr237       O242   2.389       .  S
O238        C243   1.286   1_545  A
O239        H256   0.990       .  S
O239        H271   0.990       .  S
O240        H257   0.990       .  S
O241        H261   0.990       .  S
O241        H270   0.990       .  S
O242        C243   1.276       .  A
C243        C314   1.477       .  S
O244        H263   0.991       .  S
O244        H267   0.990       .  S
O245        H259   0.990       .  S
O245        H266   0.990       .  S
O246        C250   1.294   1_545  A
O247        C250   1.284       .  A
O248        H258   0.990       .  S
O249        H262   0.990       .  S
C250        C377   1.484       .  S
C273        C274   1.407       .  A
C273        C278   1.404       .  A
C273        H279   1.083       .  S
C274        C275   1.396       .  A
C275        C276   1.392       .  A
C275        H280   1.083       .  S
C276        C277   1.417       .  A
C276        H281   1.079       .  S
C277        C278   1.414       .  A
C278        H282   1.080       .  S
C283        C284   1.411       .  A
C283        C288   1.405       .  A
C283        H289   1.082       .  S
C284        C285   1.422       .  A
C285        C286   1.392       .  A
C285        H290   1.080       .  S
C286        C287   1.394       .  A
C286        H291   1.084       .  S
C287        C288   1.405       .  A
C288        H292   1.083       .  S
C293        C294   1.413       .  A
C293        C298   1.401       .  A
C293        H299   1.083       .  S
C294        C295   1.415       .  A
C295        C296   1.396       .  A
C295        H300   1.080       .  S
C296        C297   1.400       .  A
C296        H301   1.084       .  S
C297        C298   1.405       .  A
C298        H302   1.083       .  S
C303        C304   1.417       .  A
C303        C308   1.394       .  A
C303        H309   1.081       .  S
C304        C305   1.410       .  A
C305        C306   1.394       .  A
C305        H310   1.083       .  S
C306        C307   1.402       .  A
C306        H311   1.083       .  S
C307        C308   1.398       .  A
C308        H312   1.084       .  S
C313        C314   1.407       .  A
C313        C318   1.393       .  A
C313        H319   1.083       .  S
C314        C315   1.399   1_565  A
C315        C316   1.393       .  A
C315        H320   1.083       .  S
C316        C317   1.417       .  A
C316        H321   1.080       .  S
C317        C318   1.409   1_545  A
C318        H322   1.080       .  S
C323        C324   1.411   1_565  A
C323        C328   1.389       .  A
C323        H329   1.080       .  S
C324        C325   1.415       .  A
C325        C326   1.403       .  A
C325        H330   1.083   1_554  S
C326        C327   1.402   1_545  A
C326        H331   1.083   1_554  S
C327        C328   1.402       .  A
C328        H332   1.084       .  S
C333        C334   1.412       .  A
C333        C338   1.390       .  A
C333        H339   1.084       .  S
C334        C335   1.414   1_655  A
C335        C336   1.398       .  A
C335        H340   1.080       .  S
C336        C337   1.399   1_455  A
C336        H341   1.083       .  S
C337        C338   1.399       .  A
C338        H342   1.084       .  S
C343        C344   1.414       .  A
C343        C348   1.404       .  A
C343        H349   1.080   1_554  S
C344        C345   1.415       .  A
C345        C346   1.392       .  A
C345        H350   1.079       .  S
C346        C347   1.399       .  A
C346        H351   1.084       .  S
C347        C348   1.405       .  A
C348        H352   1.083   1_554  S
C353        C354   1.407       .  A
C353        C358   1.397       .  A
C353        H359   1.082   1_554  S
C354        C355   1.421       .  A
C355        C356   1.391       .  A
C355        H360   1.081       .  S
C356        C357   1.394       .  A
C356        H361   1.083       .  S
C357        C358   1.407       .  A
C358        H362   1.083   1_554  S
C363        C364   1.422       .  A
C363        C368   1.397       .  A
C363        H369   1.081   1_655  S
C364        C365   1.409       .  A
C365        C366   1.409       .  A
C365        H370   1.082       .  S
C366        C367   1.415       .  A
C366        H371   1.083       .  S
C367        C368   1.396       .  A
C368        H372   1.083       .  S
C373        C374   1.413       .  A
C373        C378   1.403       .  A
C373        H379   1.083       .  S
C374        C375   1.417   1_565  A
C375        C376   1.396       .  A
C375        H380   1.080       .  S
C376        C377   1.401   1_545  A
C376        H381   1.083       .  S
C377        C378   1.407       .  A
C378        H382   1.083       .  S
C383        C384   1.417       .  A
C383        C388   1.391       .  A
C383        H389   1.079   1_655  S
C384        C385   1.414       .  A
C385        C386   1.405       .  A
C385        H390   1.083       .  S
C386        C387   1.405       .  A
C386        H391   1.083       .  S
C387        C388   1.400       .  A
C388        H392   1.084   1_655  S
C393        C394   1.213       .  T
C395        C396   1.416       .  A
C395        C400   1.392       .  A
C395        H401   1.081       .  S
C396        C397   1.411       .  A
C397        C398   1.395       .  A
C397        H402   1.083       .  S
C398        C399   1.402       .  A
C398        H403   1.083       .  S
C399        C400   1.397       .  A
C400        H404   1.084       .  S
C405        C406   1.403       .  A
C405        C410   1.399       .  A
C405        H411   1.083       .  S
C406        C407   1.400   1_554  A
C407        C408   1.392       .  A
C407        H412   1.084       .  S
C408        C409   1.412   1_556  A
C408        H413   1.081       .  S
C409        C410   1.412       .  A
C410        H414   1.083       .  S
C415        C416   1.407       .  A
C415        C420   1.391       .  A
C415        H421   1.081       .  S
C416        C417   1.417       .  A
C417        C418   1.392       .  A
C417        H422   1.081       .  S
C418        C419   1.397       .  A
C418        H423   1.083       .  S
C419        C420   1.409       .  A
C420        H424   1.083       .  S
C425        C426   1.216       .  T
C427        C428   1.409       .  A
C427        C432   1.396       .  A
C427        H433   1.081       .  S
C428        C429   1.418       .  A
C429        C430   1.394       .  A
C429        H434   1.079       .  S
C430        C431   1.397       .  A
C430        H435   1.083       .  S
C431        C432   1.410       .  A
C432        H436   1.083       .  S
C437        C438   1.411   1_556  A
C437        C442   1.392       .  A
C437        H443   1.080       .  S
C438        C439   1.415       .  A
C439        C440   1.403       .  A
C439        H444   1.083       .  S
C440        C441   1.403       .  A
C440        H445   1.083       .  S
C441        C442   1.403   1_554  A
C442        H446   1.084       .  S
C447        C448   1.411   1_554  A
C447        C452   1.399       .  A
C447        H453   1.082       .  S
C448        C449   1.416       .  A
C449        C450   1.392       .  A
C449        H454   1.081       .  S
C450        C451   1.397   1_556  A
C450        H455   1.083       .  S
C451        C452   1.405       .  A
C452        H456   1.083       .  S
C457        C458   1.222       .  T
C459        C460   1.415       .  A
C459        C464   1.392       .  A
C459        H465   1.080       .  S
C460        C461   1.415       .  A
C461        C462   1.405       .  A
C461        H466   1.083       .  S
C462        C463   1.406       .  A
C462        H467   1.083       .  S
C463        C464   1.399       .  A
C464        H468   1.084       .  S
C469        C470   1.414       .  A
C469        C474   1.406       .  A
C469        H475   1.082       .  S
C470        C471   1.415       .  A
C471        C472   1.388       .  A
C471        H476   1.080       .  S
C472        C473   1.400       .  A
C472        H477   1.083       .  S
C473        C474   1.404       .  A
C474        H478   1.083       .  S
C479        C480   1.411       .  A
C479        C484   1.408       .  A
C479        H485   1.083       .  S
C480        C481   1.397       .  A
C481        C482   1.389       .  A
C481        H486   1.083       .  S
C482        C483   1.417       .  A
C482        H487   1.080       .  S
C483        C484   1.411       .  A
C484        H488   1.081       .  S
C489        C490   1.229       .  T
C491        C492   1.416       .  A
C491        C496   1.401       .  A
C491        H497   1.080       .  S
C492        C493   1.413       .  A
C493        C494   1.402       .  A
C493        H498   1.083       .  S
C494        C495   1.406       .  A
C494        H499   1.083       .  S
C495        C496   1.402       .  A
C496        H500   1.083       .  S
C501        C502   1.410       .  A
C501        C506   1.405       .  A
C501        H507   1.082       .  S
C502        C503   1.422       .  A
C503        C504   1.394       .  A
C503        H508   1.081       .  S
C504        C505   1.393       .  A
C504        H509   1.084       .  S
C505        C506   1.407       .  A
C506        H510   1.083       .  S
C511        C512   1.421       .  A
C511        C516   1.397       .  A
C511        H517   1.077       .  S
C512        C513   1.412       .  A
C513        C514   1.406       .  A
C513        H518   1.081       .  S
C514        C515   1.411       .  A
C514        H519   1.083   1_565  S
C515        C516   1.397       .  A
C516        H520   1.083       .  S
