geometry optimzed in LAMMPS
_audit_creation_date              2020-12-01 
_audit_creation_method            'lammps2cif' 
_symmetry_space_group_name_H-M    'P1' 
_symmetry_Int_Tables_number       1 
_symmetry_cell_setting            triclinic 
loop_ 
_symmetry_equiv_pos_as_xyz 
  x,y,z 
_cell_length_a                    25.26986671 
_cell_length_b                    26.350006288293024 
_cell_length_c                    25.92389553690485 
_cell_angle_alpha                 90.7340642470424 
_cell_angle_beta                  90.66485266006481 
_cell_angle_gamma                 90.38365272744412 
loop_ 
_atom_site_label 
_atom_site_type_symbol 
_atom_site_fract_x 
_atom_site_fract_y 
_atom_site_fract_z 
_atom_site_charge 
N1          N  0.21720853  0.61158807  0.21605399    -0.03100
C2          C  0.17041204  0.58797514  0.22474811    -0.00500
C3          C  0.14914635  0.56929437  0.17903915    -0.23400
C4          C  0.18520617  0.57957424  0.14153745    -0.23600
C5          C  0.22843415  0.60280624  0.16571842    -0.00600
H6          H  0.11487719  0.54468147  0.17462799     0.13200
H7          H  0.18424473  0.56263210  0.10326592     0.13200
N8          N  0.21603043  0.74657911  0.25696027    -0.03100
C9          C  0.22932465  0.75279691  0.30755806    -0.00500
C10         C  0.18857840  0.77742548  0.33296031    -0.23400
C11         C  0.15201074  0.79071221  0.29634975    -0.23600
C12         C  0.17027648  0.77225010  0.25002727    -0.00600
H13         H  0.18993133  0.79285905  0.37186309     0.13200
H14         H  0.11933258  0.81648547  0.30191957     0.13200
Zn15       Zn  0.41371356  0.92882693  0.49391656     1.49700
Zn16       Zn  0.49666314  0.92643176  0.40868393     1.49400
Zn17       Zn  0.48885114  0.02364646  0.48367420     1.49100
Zn18       Zn  0.53510952  0.91653247  0.52877956     1.49500
O19         O  0.48496713  0.94894576  0.47959482    -1.83700
O20         O  0.37962461  0.88669727  0.43853236    -0.74400
O21         O  0.52378188  0.98391101  0.36703530    -0.74200
O22         O  0.42004233  0.05520240  0.51141049    -0.73700
O23         O  0.43715831  0.88502752  0.37477872    -0.74400
O24         O  0.37058051  0.98585407  0.51899148    -0.74000
O25         O  0.52133175  0.05255976  0.41787935    -0.74600
O26         O  0.57435990  0.97286880  0.57086308    -0.73900
O27         O  0.55741888  0.88026584  0.40728581    -0.74700
O28         O  0.54103609  0.04365850  0.53827054    -0.74100
O29         O  0.59015841  0.87582517  0.48698581    -0.74600
O30         O  0.49417549  0.86794379  0.57823249    -0.74500
O31         O  0.41234275  0.88208700  0.55102167    -0.74300
C32         C  0.39407130  0.87014886  0.39472218     0.77500
C33         C  0.53568905  0.03021443  0.37629546     0.78000
C34         C  0.37805436  0.03302145  0.52691324     0.77000
C35         C  0.57168013  0.02138994  0.56971649     0.77400
C36         C  0.59224318  0.86473549  0.43879872     0.78500
C37         C  0.44422185  0.85957027  0.58064970     0.77500
N38         N  0.77487580  0.26648586  0.76576655    -0.03100
C39         C  0.82403213  0.27118372  0.74606039    -0.00500
C40         C  0.85892935  0.28765707  0.78445541    -0.23400
C41         C  0.82945865  0.29820045  0.82718451    -0.23600
C42         C  0.77765147  0.28652894  0.81422918    -0.00600
H43         H  0.89926691  0.30044287  0.77909464     0.13200
H44         H  0.84318828  0.31892606  0.86114502     0.13200
N45         N  0.72122122  0.13510459  0.75155337    -0.03100
C46         C  0.66965101  0.13170310  0.73638495    -0.00500
C47         C  0.63961840  0.11394610  0.77684394    -0.23400
C48         C  0.67409702  0.10147368  0.81576898    -0.23600
C49         C  0.72404042  0.11329098  0.79849433    -0.00600
H50         H  0.59865149  0.10178580  0.77454163     0.13200
H51         H  0.66431778  0.08024532  0.84988079     0.13200
N52         N  0.69985985  0.17153801  0.23597724    -0.03100
C53         C  0.67975604  0.12364346  0.23300777    -0.00500
C54         C  0.67123108  0.10951442  0.18201695    -0.23400
C55         C  0.68182524  0.15136247  0.15325765    -0.23600
C56         C  0.69564924  0.19007402  0.18752121    -0.00600
H57         H  0.65087739  0.07583208  0.16771762     0.13200
H58         H  0.66991307  0.15564850  0.11329433     0.13200
N59         N  0.84190769  0.16977949  0.27813919    -0.03100
C60         C  0.85128669  0.18454478  0.32779794    -0.00500
C61         C  0.87993239  0.14736943  0.35274701    -0.23400
C62         C  0.89214399  0.11110303  0.31654637    -0.23600
C63         C  0.86945168  0.12624748  0.27064439    -0.00600
H64         H  0.89842726  0.15085016  0.39052817     0.13200
H65         H  0.91968123  0.08025099  0.32180896     0.13200
Zn66       Zn  0.04369410  0.40936793  0.46685976     1.49700
Zn67       Zn  0.92530300  0.45070349  0.49582531     1.49400
Zn68       Zn  0.01329042  0.44298381  0.58121907     1.49100
Zn69       Zn  0.02514920  0.52656370  0.50140490     1.49500
O70         O  0.00208670  0.45691307  0.50990095    -1.83700
O71         O  0.99202288  0.36243737  0.42623826    -0.74400
O72         O  0.88347104  0.42189019  0.55634380    -0.74200
O73         O  0.06935708  0.39352581  0.58992526    -0.73700
O74         O  0.91330909  0.39509624  0.44440500    -0.74400
O75         O  0.09342745  0.36521676  0.51302409    -0.74000
O76         O  0.95176328  0.40628036  0.60835330    -0.74600
O77         O  0.06060250  0.55827281  0.56549030    -0.73900
O78         O  0.89682759  0.51463687  0.46182647    -0.74700
O79         O  0.04032908  0.50101445  0.62418911    -0.74100
O80         O  0.96648272  0.56672232  0.46948893    -0.74600
O81         O  0.07744777  0.52973305  0.44568853    -0.74500
O82         O  0.08553368  0.45124868  0.41442871    -0.74300
C83         C  0.94153580  0.36229759  0.42153897     0.77500
C84         C  0.90375596  0.39937088  0.59502833     0.78000
C85         C  0.09730144  0.36456290  0.56236399     0.77000
C86         C  0.06356633  0.54189430  0.61149760     0.77400
C87         C  0.92008725  0.55660121  0.45222216     0.78500
C88         C  0.09487138  0.49897308  0.41199321     0.77500
N89         N  0.35133545  0.67473154  0.73459816    -0.03100
C90         C  0.37715148  0.63027279  0.74151205    -0.00500
C91         C  0.39860866  0.61343605  0.69583450    -0.23400
C92         C  0.38732572  0.64947696  0.65993263    -0.23600
C93         C  0.36068724  0.68817381  0.68506466    -0.00600
H94         H  0.42498089  0.58160821  0.69070563     0.13200
H95         H  0.40533334  0.65163429  0.62231928     0.13200
N96         N  0.20994915  0.68531226  0.77295249    -0.03100
C97         C  0.19409901  0.63596236  0.77101844    -0.00500
C98         C  0.18782186  0.61754300  0.82022417    -0.23400
C99         C  0.19484603  0.65794584  0.85311145    -0.23600
C100        C  0.20309881  0.70038948  0.82294949    -0.00600
H101        H  0.17151689  0.58120159  0.83105612     0.13200
H102        H  0.18305964  0.65772959  0.89310689     0.13200
Zn103      Zn  0.91504133  0.95509495  0.00105638     1.49700
Zn104      Zn  0.99625865  0.94592350  0.90954291     1.49400
Zn105      Zn  0.03668571  0.97268097  0.02864338     1.49100
Zn106      Zn  0.98889654  0.86196272  0.99697022     1.49500
O107        O  0.98533778  0.93457427  0.98408245    -1.83700
O108        O  0.88079995  0.98917565  0.94282973    -0.74400
O109        O  0.05326241  0.99820757  0.90332804    -0.74200
O110        O  0.99739931  0.01978707  0.08013131    -0.73700
O111        O  0.93048959  0.97861850  0.87352996    -0.74400
O112        O  0.91371316  0.00463781  0.05853895    -0.74000
O113        O  0.08609071  0.01425039  0.98198395    -0.74600
O114        O  0.03712014  0.85032223  0.05565929    -0.73900
O115        O  0.03205157  0.88326313  0.87548105    -0.74700
O116        O  0.07962516  0.92257136  0.07305013    -0.74100
O117        O  0.02888246  0.82810561  0.93985895    -0.74600
O118        O  0.91968629  0.82887660  0.02062228    -0.74500
O119        O  0.87144019  0.89844341  0.02708021    -0.74300
C120        C  0.88953165  0.99705419  0.89549077     0.77500
C121        C  0.08665422  0.02054964  0.93302711     0.78000
C122        C  0.94789937  0.02678458  0.08711286     0.77000
C123        C  0.07216953  0.87519445  0.08077612     0.77400
C124        C  0.04627314  0.84151654  0.89608082     0.78500
C125        C  0.87767405  0.85140299  0.03497537     0.77500
N126        N  0.22923928  0.17802244  0.67979756    -0.03100
C127        C  0.22439659  0.13079501  0.65885459    -0.00500
C128        C  0.17156001  0.11859389  0.65125553    -0.23400
C129        C  0.14368452  0.16130423  0.66359423    -0.23600
C130        C  0.18040560  0.19888508  0.67617626    -0.00600
H131        H  0.15531333  0.08580775  0.63097444     0.13200
H132        H  0.10279765  0.16739880  0.65240865     0.13200
N133        N  0.27397579  0.16189391  0.81624515    -0.03100
C134        C  0.26508622  0.11493357  0.83544736    -0.00500
C135        C  0.31230956  0.09268763  0.84929205    -0.23400
C136        C  0.35119479  0.12786126  0.84099220    -0.23600
C137        C  0.32653622  0.17133479  0.82339386    -0.00600
H138        H  0.31715389  0.05755735  0.87000547     0.13200
H139        H  0.39140030  0.12490249  0.85546521     0.13200
Zn140      Zn  0.50759304  0.44017561  0.08733033     1.49700
Zn141      Zn  0.52328247  0.36184781  0.99705143     1.49400
Zn142      Zn  0.43358187  0.43837569  0.98694268     1.49100
Zn143      Zn  0.55526626  0.47809356  0.97628190     1.49500
O144        O  0.50575441  0.43094112  0.01165858    -1.83700
O145        O  0.54074059  0.38008121  0.12584261    -0.74400
O146        O  0.46635967  0.32134194  0.96100437    -0.74200
O147        O  0.39096044  0.47123951  0.04132429    -0.73700
O148        O  0.55679333  0.33031767  0.05800322    -0.74400
O149        O  0.43844359  0.46996737  0.11413353    -0.74000
O150        O  0.40015850  0.37551656  0.95289192    -0.74600
O151        O  0.51187014  0.52366168  0.92669717    -0.73900
O152        O  0.57991012  0.35912553  0.94737006    -0.74700
O153        O  0.43145270  0.49004291  0.93316403    -0.74100
O154        O  0.60965758  0.43684425  0.93309172    -0.74600
O155        O  0.59443133  0.52280400  0.03144405    -0.74500
O156        O  0.55840208  0.49539192  0.10384473    -0.74300
C157        C  0.56326649  0.34162834  0.10546466     0.77500
C158        C  0.42089174  0.33257694  0.94313468     0.78000
C159        C  0.39787055  0.48412730  0.08836966     0.77000
C160        C  0.46279528  0.52204777  0.91366414     0.77400
C161        C  0.61186916  0.38877053  0.92556811     0.78500
C162        C  0.58989793  0.52475683  0.08063142     0.77500
N163        N  0.78261027  0.72823848  0.32540813    -0.03100
C164        C  0.77631925  0.77611516  0.34423233    -0.00500
C165        C  0.82497181  0.79740852  0.35651368    -0.23400
C166        C  0.86190677  0.76064166  0.34786985    -0.23600
C167        C  0.83472488  0.71733989  0.33145785    -0.00600
H168        H  0.83217700  0.83330277  0.37627186     0.13200
H169        H  0.90256385  0.76285836  0.36134244     0.13200
N170        N  0.72721227  0.71346884  0.19213043    -0.03100
C171        C  0.72236846  0.75840327  0.16765659    -0.00500
C172        C  0.66954675  0.77036143  0.16138636    -0.23400
C173        C  0.64132289  0.72970130  0.17891752    -0.23600
C174        C  0.67767140  0.69328226  0.19340326    -0.00600
H175        H  0.65309557  0.80135114  0.13955280     0.13200
H176        H  0.59969604  0.72317513  0.17073455     0.13200
C177        C  0.74925433  0.70756636  0.28438811    -0.16000
C178        C  0.76497775  0.70954034  0.23447966    -0.31200
H179        H  0.70766324  0.70140877  0.29246198     0.13000
H180        H  0.80574031  0.72048549  0.22725901     0.13600
C181        C  0.66219611  0.59048739  0.09297073    -0.12900
C182        C  0.61973832  0.56257359  0.11275639     0.09200
C183        C  0.60365181  0.57265611  0.16384458    -0.12900
C184        C  0.62646945  0.61236412  0.19283167    -0.12900
C185        C  0.66677594  0.64201768  0.17193973     0.09200
C186        C  0.68583405  0.62955490  0.12251938    -0.12900
H187        H  0.67574051  0.58346230  0.05407365     0.13200
H188        H  0.57112846  0.55179630  0.18051029     0.13200
H189        H  0.61031935  0.62206979  0.23017105     0.13200
H190        H  0.71602296  0.65287180  0.10502844     0.13200
C191        C  0.31602413  0.25477876  0.87007591    -0.12900
C192        C  0.34792508  0.22129843  0.84138684     0.09200
C193        C  0.40296212  0.22896477  0.84233354    -0.12900
C194        C  0.42595339  0.26536439  0.87524243    -0.12900
C195        C  0.39449655  0.29612725  0.90704182     0.09200
C196        C  0.33917023  0.29228280  0.90233578    -0.12900
H197        H  0.27348933  0.24953033  0.87065235     0.13200
H198        H  0.42854110  0.20405918  0.82049635     0.13200
H199        H  0.46870542  0.26871490  0.87661788     0.13200
H200        H  0.31402075  0.31631229  0.92558349     0.13200
C201        C  0.26262938  0.18424970  0.72539545    -0.16000
C202        C  0.24247608  0.18092794  0.77367387    -0.31200
H203        H  0.30506052  0.17908340  0.72075381     0.13000
H204        H  0.19961027  0.18068010  0.77778829     0.13600
C205        C  0.84340553  0.77495307  0.08289068    -0.12900
C206        C  0.83689894  0.82506433  0.06594891     0.09200
C207        C  0.79389715  0.85317438  0.08479337    -0.12900
C208        C  0.75875931  0.83231471  0.11980858    -0.12900
C209        C  0.76475189  0.78227620  0.13658341     0.09200
C210        C  0.80745846  0.75367802  0.11767806    -0.12900
H211        H  0.87642334  0.75250088  0.06977301     0.13200
H212        H  0.78779193  0.89216378  0.07338482     0.13200
H213        H  0.72654979  0.85549365  0.13350883     0.13200
H214        H  0.81245621  0.71450617  0.12888758     0.13200
C215        C  0.17086981  0.07176982  0.93815153    -0.12900
C216        C  0.12832947  0.05216581  0.90876370     0.09200
C217        C  0.12842286  0.05901524  0.85474105    -0.12900
C218        C  0.17148256  0.08218781  0.83052312    -0.12900
C219        C  0.21510955  0.09895327  0.85987593     0.09200
C220        C  0.21376049  0.09483722  0.91394055    -0.12900
H221        H  0.17216509  0.06733214  0.97964815     0.13200
H222        H  0.09617263  0.04459218  0.83084213     0.13200
H223        H  0.17183488  0.08469325  0.78881067     0.13200
H224        H  0.24709647  0.10772663  0.93733633     0.13200
C225        C  0.16943251  0.76114829  0.88947943    -0.12900
C226        C  0.17184223  0.74646865  0.83728667     0.09200
C227        C  0.13488805  0.76776976  0.80253810    -0.12900
C228        C  0.09445965  0.80010398  0.82045698    -0.12900
C229        C  0.08952526  0.81042538  0.87352221     0.09200
C230        C  0.12849937  0.79176535  0.90737378    -0.12900
H231        H  0.19730746  0.74595439  0.91728413     0.13200
H232        H  0.13516710  0.75695491  0.76214728     0.13200
H233        H  0.06564585  0.81482579  0.79332107     0.13200
H234        H  0.12693513  0.80040525  0.94827199     0.13200
C235        C  0.45114919  0.61383034  0.80273587    -0.12900
C236        C  0.39655461  0.61127328  0.79150039     0.09200
C237        C  0.36337237  0.58380202  0.82373214    -0.12900
C238        C  0.38497391  0.55682376  0.86496946    -0.12900
C239        C  0.44021451  0.55666346  0.87449655     0.09200
C240        C  0.47282807  0.58693061  0.84398772    -0.12900
H241        H  0.47737905  0.63482463  0.77791629     0.13200
H242        H  0.32133542  0.58099587  0.81538822     0.13200
H243        H  0.35847636  0.53439191  0.88813594     0.13200
H244        H  0.51524240  0.58792365  0.85041268     0.13200
C245        C  0.25764702  0.69757933  0.74462646    -0.16000
C246        C  0.30653202  0.68991388  0.76576576    -0.31200
H247        H  0.25424089  0.69978622  0.70299631     0.13000
H248        H  0.30892422  0.68272473  0.80681722     0.13600
C249        C  0.17549406  0.24653018  0.59384813    -0.12900
C250        C  0.17307581  0.24697384  0.64822980     0.09200
C251        C  0.15403866  0.28997580  0.67360567    -0.12900
C252        C  0.13395076  0.33034145  0.64503332    -0.12900
C253        C  0.13122204  0.32787535  0.59046098     0.09200
C254        C  0.15437114  0.28645724  0.56515390    -0.12900
H255        H  0.18992619  0.21329814  0.57354013     0.13200
H256        H  0.15166823  0.29100816  0.71529556     0.13200
H257        H  0.11715826  0.36205269  0.66601008     0.13200
H258        H  0.15303245  0.28330074  0.52347505     0.13200
C259        C  0.90803998  0.65770888  0.35101129    -0.12900
C260        C  0.85350959  0.66738423  0.34995186     0.09200
C261        C  0.81973877  0.63604560  0.37875738    -0.12900
C262        C  0.84070974  0.59880739  0.41133219    -0.12900
C263        C  0.89572813  0.59307548  0.41618177     0.09200
C264        C  0.92891618  0.62152427  0.38417168    -0.12900
H265        H  0.93499346  0.68085294  0.32899160     0.13200
H266        H  0.77752221  0.64281906  0.37916429     0.13200
H267        H  0.81422136  0.57645773  0.43462952     0.13200
H268        H  0.97142959  0.61650063  0.38552147     0.13200
C269        C  0.12170680  0.53769816  0.68919978    -0.12900
C270        C  0.09859794  0.56725601  0.65033571     0.09200
C271        C  0.11273490  0.61880546  0.64749534    -0.12900
C272        C  0.14664453  0.64089953  0.68499432    -0.12900
C273        C  0.16784523  0.61151991  0.72522727     0.09200
C274        C  0.15632815  0.55931194  0.72560861    -0.12900
H275        H  0.11328483  0.49742334  0.69134552     0.13200
H276        H  0.09642920  0.64223003  0.61727098     0.13200
H277        H  0.15438055  0.68131202  0.68373819     0.13200
H278        H  0.17279586  0.53516629  0.75510095     0.13200
C279        C  0.96304329  0.07878637  0.16807130    -0.12900
C280        C  0.92821723  0.05876018  0.13048296     0.09200
C281        C  0.87320688  0.06545608  0.13718180    -0.12900
C282        C  0.85355586  0.08929498  0.18159383    -0.12900
C283        C  0.88848164  0.10701533  0.22013443     0.09200
C284        C  0.94336925  0.10257911  0.21235759    -0.12900
H285        H  0.00543954  0.07440508  0.16425103     0.13200
H286        H  0.84509139  0.05054414  0.10898374     0.13200
H287        H  0.81113432  0.09167971  0.18680898     0.13200
H288        H  0.97117422  0.11639168  0.24145216     0.13200
C289        C  0.84063653  0.26113703  0.38406807    -0.12900
C290        C  0.86486758  0.23750786  0.34196742     0.09200
C291        C  0.91222025  0.25815747  0.32289568    -0.12900
C292        C  0.93693134  0.29953269  0.34784417    -0.12900
C293        C  0.91383631  0.32190668  0.39134626     0.09200
C294        C  0.86441858  0.30358688  0.40797762    -0.12900
H295        H  0.80509125  0.24495257  0.40029257     0.13200
H296        H  0.93233880  0.23951270  0.29132695     0.13200
H297        H  0.97476364  0.31304852  0.33411967     0.13200
H298        H  0.84583875  0.32006270  0.44161652     0.13200
C299        C  0.62983225  0.25850269  0.20565033    -0.12900
C300        C  0.67328653  0.24070561  0.17697539     0.09200
C301        C  0.68413944  0.26290273  0.12951306    -0.12900
C302        C  0.64916182  0.29771141  0.10829747    -0.12900
C303        C  0.60277043  0.31163612  0.13423847     0.09200
C304        C  0.59479238  0.29414925  0.18444335    -0.12900
H305        H  0.62014107  0.24134719  0.24208620     0.13200
H306        H  0.71701189  0.24962074  0.10660146     0.13200
H307        H  0.65697645  0.31181979  0.07003809     0.13200
H308        H  0.55969745  0.30489083  0.20541937     0.13200
C309        C  0.74629906  0.18092791  0.26825584    -0.16000
C310        C  0.79566959  0.18315577  0.24786702    -0.31200
H311        H  0.74276360  0.17471183  0.30942752     0.13000
H312        H  0.79954729  0.18403377  0.20622583     0.13600
C313        C  0.84881437  0.03498397  0.81434285    -0.12900
C314        C  0.85124490  0.03050801  0.86830858     0.09200
C315        C  0.81580608  0.05927128  0.89829935    -0.12900
C316        C  0.77708813  0.08907783  0.87535527    -0.12900
C317        C  0.77261317  0.09146497  0.82166684     0.09200
C318        C  0.80962502  0.06525950  0.79117049    -0.12900
H319        H  0.87577622  0.01387722  0.79021477     0.13200
H320        H  0.81709214  0.05804981  0.94005293     0.13200
H321        H  0.74920628  0.10887784  0.89967502     0.13200
H322        H  0.80638006  0.06593869  0.74948127     0.13200
C323        C  0.73652750  0.36578299  0.84868166    -0.16100
C324        C  0.73322315  0.31296144  0.83940026     0.09200
C325        C  0.68855981  0.28639032  0.85549761    -0.12900
C326        C  0.64847682  0.31187395  0.88160547    -0.12900
C327        C  0.65232558  0.36451622  0.89255762     0.09200
C328        C  0.69643360  0.39137922  0.87500286    -0.12900
H329        H  0.77061023  0.38718240  0.83603003     0.13200
H330        H  0.68536760  0.24572297  0.84948564     0.13200
H331        H  0.61492390  0.28982651  0.89439286     0.13200
H332        H  0.70064532  0.43170056  0.88280459     0.13200
C333        C  0.88093816  0.28092243  0.67012693    -0.12900
C334        C  0.83271761  0.29107413  0.69389161     0.09200
C335        C  0.80239416  0.33262644  0.67697958    -0.12900
C336        C  0.82322748  0.36699559  0.64143514    -0.12900
C337        C  0.87451848  0.35991118  0.62291572     0.09200
C338        C  0.90169568  0.31512587  0.63511287    -0.12900
H339        H  0.90507431  0.24955482  0.68281146     0.13200
H340        H  0.76534247  0.34166250  0.69544404     0.13200
H341        H  0.80144082  0.40093055  0.63206129     0.13200
H342        H  0.94090866  0.30826959  0.62010578     0.13200
C343        C  0.73784146  0.22641844  0.75121540    -0.16000
C344        C  0.75476862  0.17842839  0.74116821    -0.31200
H345        H  0.69641528  0.23203069  0.75924633     0.13000
H346        H  0.79683771  0.17189004  0.73811080     0.13600
C347        C  0.29521404  0.03255778  0.57833611    -0.12900
C348        C  0.33859948  0.06003282  0.55917126     0.09200
C349        C  0.34654310  0.11028811  0.57663312    -0.12900
C350        C  0.31098834  0.13271318  0.61131609    -0.12900
C351        C  0.26717601  0.10515790  0.62958754     0.09200
C352        C  0.26044978  0.05456756  0.61326314    -0.12900
H353        H  0.28821663  0.99337272  0.56686632     0.13200
H354        H  0.38015533  0.13214200  0.56364732     0.13200
H355        H  0.31693502  0.17210464  0.62254838     0.13200
H356        H  0.22763269  0.03197101  0.62682117     0.13200
C357        C  0.63482255  0.81856169  0.36510068    -0.12900
C358        C  0.63704614  0.83580952  0.41693013     0.09200
C359        C  0.68425510  0.83012033  0.44498264    -0.12900
C360        C  0.72880752  0.80972840  0.42118484    -0.12900
C361        C  0.72720295  0.79448816  0.36884183     0.09200
C362        C  0.67947932  0.79814830  0.34129405    -0.12900
H363        H  0.59896571  0.82238918  0.34230916     0.13200
H364        H  0.68740985  0.84318868  0.48473248     0.13200
H365        H  0.76498163  0.80654717  0.44362990     0.13200
H366        H  0.67712814  0.78724516  0.30087677     0.13200
C367        C  0.63618273  0.04762553  0.27076795    -0.12900
C368        C  0.64911545  0.09939676  0.27483548     0.09200
C369        C  0.62461544  0.12888235  0.31333800    -0.12900
C370        C  0.58663200  0.10722356  0.34580122    -0.12900
C371        C  0.57206485  0.05580631  0.33994759     0.09200
C372        C  0.59797323  0.02631387  0.30238795    -0.12900
H373        H  0.65457647  0.02371916  0.24191570     0.13200
H374        H  0.63322153  0.16909282  0.31701816     0.13200
H375        H  0.56842787  0.13072314  0.37509737     0.13200
H376        H  0.58923199  0.98622110  0.29760810     0.13200
C377        C  0.45026611  0.79718623  0.65390634    -0.12900
C378        C  0.42055118  0.82152959  0.61567588     0.09200
C379        C  0.36700262  0.80683324  0.60802465    -0.12900
C380        C  0.34512073  0.76622473  0.63475093    -0.12900
C381        C  0.37567923  0.74025637  0.67074533     0.09200
C382        C  0.42780473  0.75716933  0.68154687    -0.12900
H383        H  0.49132394  0.80754802  0.66088094     0.13200
H384        H  0.34262708  0.82466677  0.57895731     0.13200
H385        H  0.30552745  0.75299991  0.62482729     0.13200
H386        H  0.45250756  0.73654574  0.70835010     0.13200
C387        C  0.64880450  0.03519800  0.63072121    -0.12900
C388        C  0.60298048  0.05353019  0.60649618     0.09200
C389        C  0.58541933  0.10274598  0.61940299    -0.12900
C390        C  0.61041482  0.13114899  0.65879214    -0.12900
C391        C  0.65450920  0.11161312  0.68479399     0.09200
C392        C  0.67466827  0.06426242  0.66908753    -0.12900
H393        H  0.66352392  0.99779747  0.62129302     0.13200
H394        H  0.55021426  0.11807770  0.60129722     0.13200
H395        H  0.59345216  0.16682759  0.67111122     0.13200
H396        H  0.70789012  0.04782088  0.68962013     0.13200
C397        C  0.16601259  0.84601569  0.19168328    -0.12900
C398        C  0.15337140  0.79492251  0.20102042     0.09200
C399        C  0.11765622  0.76936007  0.16832531    -0.12900
C400        C  0.09301806  0.79523653  0.12802932    -0.12900
C401        C  0.10334641  0.84731446  0.12002345     0.09200
C402        C  0.14127410  0.87206929  0.15145509    -0.12900
H403        H  0.19324584  0.86640966  0.21722611     0.13200
H404        H  0.10698019  0.73023832  0.17547926     0.13200
H405        H  0.06422834  0.77473118  0.10433134     0.13200
H406        H  0.15031738  0.91184646  0.14622939     0.13200
C407        C  0.29546060  0.76334726  0.37802754    -0.12900
C408        C  0.28391908  0.76514295  0.32505465     0.09200
C409        C  0.31651777  0.79478929  0.29335290    -0.12900
C410        C  0.35509150  0.82727674  0.31531778    -0.12900
C411        C  0.36093525  0.83064060  0.36913306     0.09200
C412        C  0.33301925  0.79631739  0.39993020    -0.12900
H413        H  0.27111469  0.74077565  0.40322283     0.13200
H414        H  0.30833293  0.79715249  0.25234095     0.13200
H415        H  0.37711364  0.85250414  0.29073814     0.13200
H416        H  0.33825859  0.79683182  0.44149417     0.13200
C417        C  0.31381726  0.55859977  0.18324805    -0.12900
C418        C  0.28155501  0.58635306  0.14913674     0.09200
C419        C  0.29251996  0.58464242  0.09631680    -0.12900
C420        C  0.33072663  0.55168857  0.07734854    -0.12900
C421        C  0.35964151  0.52027203  0.11080493     0.09200
C422        C  0.35285472  0.52593838  0.16419781    -0.12900
H423        H  0.30589681  0.55875110  0.22422725     0.13200
H424        H  0.26834172  0.60557234  0.06926949     0.13200
H425        H  0.33656345  0.54981485  0.03602459     0.13200
H426        H  0.37561709  0.50326772  0.19088106     0.13200
C427        C  0.15276162  0.51266769  0.27907044    -0.12900
C428        C  0.15629587  0.56579589  0.27483568     0.09200
C429        C  0.14503257  0.59635671  0.31771438    -0.12900
C430        C  0.12830455  0.57416466  0.36349778    -0.12900
C431        C  0.12226184  0.52096808  0.36711917     0.09200
C432        C  0.13588238  0.49044451  0.32471051    -0.12900
H433        H  0.16205790  0.48829798  0.24650615     0.13200
H434        H  0.14706195  0.63732954  0.31525154     0.13200
H435        H  0.11788000  0.59896652  0.39535398     0.13200
H436        H  0.13151754  0.44955792  0.32604425     0.13200
C437        C  0.23398282  0.65610515  0.24535987    -0.16000
C438        C  0.22910965  0.70304425  0.22497255    -0.31200
H439        H  0.23722107  0.65281565  0.28692602     0.13000
H440        H  0.22110173  0.70562776  0.18386286     0.13600
loop_ 
_geom_bond_atom_site_label_1 
_geom_bond_atom_site_label_2 
_geom_bond_distance 
_geom_bond_site_symmetry_2 
_ccdc_geom_bond_type 
N1            C5   1.356       .  A
N1            C2   1.355       .  A
N1          C437   1.448       .  S
C2            C3   1.379       .  A
C2          C428   1.477       .  S
C3            C4   1.369       .  A
C3            H6   1.083       .  S
C4            C5   1.388       .  A
C4            H7   1.083       .  S
C5          C418   1.480       .  S
N8           C12   1.355       .  A
N8            C9   1.358       .  A
N8          C438   1.449       .  S
C9           C10   1.389       .  A
C9          C408   1.480       .  S
C10          C11   1.367       .  A
C10          H13   1.083       .  S
C11          C12   1.376       .  A
C11          H14   1.082       .  S
C12         C398   1.471       .  S
Zn15         O19   1.915       .  S
Zn15         O20   1.988       .  S
Zn15         O24   1.970       .  S
Zn15         O31   1.938       .  S
Zn16         O19   1.951       .  S
Zn16         O21   1.994       .  S
Zn16         O23   2.036       .  S
Zn16         O27   1.966       .  S
Zn17         O19   1.972   1_545  S
Zn17         O22   2.065       .  S
Zn17         O25   2.054       .  S
Zn17         O28   1.987       .  S
Zn18         O19   1.991       .  S
Zn18         O26   2.072       .  S
Zn18         O29   2.070       .  S
Zn18         O30   2.099       .  S
O20          C32   1.270       .  A
O21          C33   1.274   1_565  A
O22          C34   1.279       .  A
O23          C32   1.272       .  A
O24          C34   1.270   1_565  A
O25          C33   1.279       .  A
O26          C35   1.281   1_565  A
O27          C36   1.267       .  A
O28          C35   1.270       .  A
O29          C36   1.281       .  A
O30          C37   1.282       .  A
O31          C37   1.263       .  A
C32         C411   1.477       .  S
C33         C371   1.489       .  S
C34         C348   1.488       .  S
C35         C388   1.485       .  S
C36         C358   1.483       .  S
C37         C378   1.488       .  S
N38          C42   1.357       .  A
N38          C39   1.354       .  A
N38         C343   1.450       .  S
C39          C40   1.386       .  A
C39         C334   1.475       .  S
C40          C41   1.369       .  A
C40          H43   1.082       .  S
C41          C42   1.380       .  A
C41          H44   1.082       .  S
C42         C324   1.479       .  S
N45          C49   1.354       .  A
N45          C46   1.359       .  A
N45         C344   1.447       .  S
C46          C47   1.386       .  A
C46         C391   1.477       .  S
C47          C48   1.370       .  A
C47          H50   1.082       .  S
C48          C49   1.379       .  A
C48          H51   1.083       .  S
C49         C317   1.483       .  S
N52          C56   1.357       .  A
N52          C53   1.358       .  A
N52         C309   1.451       .  S
C53          C54   1.383       .  A
C53         C368   1.488       .  S
C54          C55   1.366       .  A
C54          H57   1.082       .  S
C55          C56   1.384       .  A
C55          H58   1.083       .  S
C56         C300   1.480       .  S
N59          C63   1.359       .  A
N59          C60   1.358       .  A
N59         C310   1.448       .  S
C60          C61   1.384       .  A
C60         C290   1.476       .  S
C61          C62   1.370       .  A
C61          H64   1.083       .  S
C62          C63   1.380       .  A
C62          H65   1.083       .  S
C63         C283   1.484       .  S
Zn66         O70   1.982       .  S
Zn66         O71   2.063   1_455  S
Zn66         O75   2.094       .  S
Zn66         O82   2.059       .  S
Zn67         O70   1.975   1_655  S
Zn67         O72   2.053       .  S
Zn67         O74   1.988       .  S
Zn67         O78   2.043       .  S
Zn68         O70   1.908       .  S
Zn68         O73   1.945       .  S
Zn68         O76   1.967   1_455  S
Zn68         O79   1.993       .  S
Zn69         O70   1.938       .  S
Zn69         O77   2.045       .  S
Zn69         O80   2.004   1_455  S
Zn69         O81   1.971       .  S
O71          C83   1.280       .  A
O72          C84   1.276       .  A
O73          C85   1.264       .  A
O74          C83   1.270       .  A
O75          C85   1.282       .  A
O76          C84   1.269       .  A
O77          C86   1.275       .  A
O78          C87   1.277       .  A
O79          C86   1.272       .  A
O80          C87   1.275       .  A
O81          C88   1.269       .  A
O82          C88   1.280       .  A
C83         C293   1.480       .  S
C84         C337   1.473       .  S
C85         C253   1.488       .  S
C86         C270   1.483       .  S
C87         C263   1.481       .  S
C88         C431   1.483       .  S
N89          C93   1.359       .  A
N89          C90   1.358       .  A
N89         C246   1.454       .  S
C90          C91   1.378       .  A
C90         C236   1.475       .  S
C91          C92   1.367       .  A
C91          H94   1.083       .  S
C92          C93   1.386       .  A
C92          H95   1.083       .  S
C93         C381   1.474       .  S
N96         C100   1.364       .  A
N96          C97   1.358       .  A
N96         C245   1.455       .  S
C97          C98   1.381       .  A
C97         C273   1.490       .  S
C98          C99   1.365       .  A
C98         H101   1.082       .  S
C99         C100   1.389       .  A
C99         H102   1.082       .  S
C100        C226   1.498       .  S
Zn103       O107   1.915   1_554  S
Zn103       O108   1.962   1_554  S
Zn103       O112   1.969   1_565  S
Zn103       O119   1.980       .  S
Zn104       O107   1.981       .  S
Zn104       O109   1.996   1_655  S
Zn104       O111   2.093       .  S
Zn104       O115   2.080   1_655  S
Zn105       O107   1.986   1_454  S
Zn105       O110   2.077   1_465  S
Zn105       O113   2.067   1_564  S
Zn105       O116   2.068       .  S
Zn106       O107   1.949       .  S
Zn106       O114   1.967   1_656  S
Zn106       O117   2.005   1_655  S
Zn106       O118   2.053   1_556  S
O108        C120   1.269       .  A
O109        C121   1.272   1_565  A
O110        C122   1.280       .  A
O111        C120   1.282       .  A
O112        C122   1.266       .  A
O113        C121   1.282       .  A
O114        C123   1.267       .  A
O115        C124   1.281       .  A
O116        C123   1.280       .  A
O117        C124   1.275       .  A
O118        C125   1.277       .  A
O119        C125   1.269       .  A
C120        C314   1.490   1_565  S
C121        C216   1.489       .  S
C122        C280   1.489       .  S
C123        C401   1.485       .  S
C124        C229   1.491       .  S
C125        C206   1.487       .  S
N126        C130   1.357       .  A
N126        C127   1.356       .  A
N126        C201   1.451       .  S
C127        C128   1.383       .  A
C127        C351   1.489       .  S
C128        C129   1.368       .  A
C128        H131   1.082       .  S
C129        C130   1.386       .  A
C129        H132   1.083       .  S
C130        C250   1.479       .  S
N133        C137   1.360       .  A
N133        C134   1.358       .  A
N133        C202   1.450       .  S
C134        C135   1.379       .  A
C134        C219   1.480       .  S
C135        C136   1.367       .  A
C135        H138   1.083       .  S
C136        C137   1.387       .  A
C136        H139   1.083       .  S
C137        C192   1.487       .  S
Zn140       O144   1.974       .  S
Zn140       O145   2.060       .  S
Zn140       O149   2.046       .  S
Zn140       O156   1.974       .  S
Zn141       O144   1.911   1_556  S
Zn141       O146   2.001       .  S
Zn141       O148   1.979   1_556  S
Zn141       O152   1.937       .  S
Zn142       O144   1.938   1_556  S
Zn142       O147   1.978   1_556  S
Zn142       O150   2.040       .  S
Zn142       O153   1.962       .  S
Zn143       O144   1.996   1_556  S
Zn143       O151   2.079       .  S
Zn143       O154   2.085       .  S
Zn143       O155   2.079   1_556  S
O145        C157   1.277       .  A
O146        C158   1.272       .  A
O147        C159   1.272       .  A
O148        C157   1.271       .  A
O149        C159   1.278       .  A
O150        C158   1.274       .  A
O151        C160   1.282       .  A
O152        C161   1.263       .  A
O153        C160   1.267       .  A
O154        C161   1.281       .  A
O155        C162   1.282       .  A
O156        C162   1.269       .  A
C157        C303   1.478       .  S
C158        C195   1.482       .  S
C159        C421   1.480       .  S
C160        C239   1.485       .  S
C161        C327   1.484       .  S
C162        C182   1.486       .  S
N163        C167   1.357       .  A
N163        C164   1.358       .  A
N163        C177   1.448       .  S
C164        C165   1.380       .  A
C164        C361   1.483       .  S
C165        C166   1.368       .  A
C165        H168   1.083       .  S
C166        C167   1.387       .  A
C166        H169   1.082       .  S
C167        C260   1.486       .  S
N170        C174   1.358       .  A
N170        C171   1.356       .  A
N170        C178   1.451       .  S
C171        C172   1.382       .  A
C171        C209   1.489       .  S
C172        C173   1.369       .  A
C172        H175   1.082       .  S
C173        C174   1.385       .  A
C173        H176   1.083       .  S
C174        C185   1.477       .  S
C177        C178   1.359       .  D
C177        H179   1.086       .  S
C178        H180   1.087       .  S
C181        C182   1.403       .  A
C181        C186   1.402       .  A
C181        H187   1.083       .  S
C182        C183   1.412       .  A
C183        C184   1.398       .  A
C183        H188   1.083       .  S
C184        C185   1.398       .  A
C184        H189   1.083       .  S
C185        C186   1.410       .  A
C186        H190   1.083       .  S
C191        C192   1.410       .  A
C191        C196   1.406       .  A
C191        H197   1.083       .  S
C192        C193   1.404       .  A
C193        C194   1.395       .  A
C193        H198   1.083       .  S
C194        C195   1.405       .  A
C194        H199   1.083       .  S
C195        C196   1.405       .  A
C196        H200   1.083       .  S
C201        C202   1.360       .  D
C201        H203   1.090       .  S
C202        H204   1.090       .  S
C205        C206   1.407       .  A
C205        C210   1.406       .  A
C205        H211   1.082       .  S
C206        C207   1.408       .  A
C207        C208   1.393       .  A
C207        H212   1.084       .  S
C208        C209   1.402       .  A
C208        H213   1.081       .  S
C209        C210   1.409       .  A
C210        H214   1.084       .  S
C215        C216   1.402       .  A
C215        C220   1.398       .  A
C215        H221   1.084       .  S
C216        C217   1.414       .  A
C217        C218   1.403       .  A
C217        H222   1.082       .  S
C218        C219   1.398       .  A
C218        H223   1.084       .  S
C219        C220   1.408       .  A
C220        H224   1.083       .  S
C225        C226   1.405       .  A
C225        C230   1.396       .  A
C225        H231   1.084       .  S
C226        C227   1.414       .  A
C227        C228   1.413       .  A
C227        H232   1.082       .  S
C228        C229   1.406       .  A
C228        H233   1.084       .  S
C229        C230   1.407       .  A
C230        H234   1.083       .  S
C235        C236   1.408       .  A
C235        C240   1.399       .  A
C235        H241   1.083       .  S
C236        C237   1.396       .  A
C237        C238   1.399       .  A
C237        H242   1.083       .  S
C238        C239   1.415       .  A
C238        H243   1.082       .  S
C239        C240   1.401       .  A
C240        H244   1.083       .  S
C245        C246   1.363       .  D
C245        H247   1.084       .  S
C246        H248   1.084       .  S
C249        C250   1.412       .  A
C249        C254   1.401       .  A
C249        H255   1.083       .  S
C250        C251   1.394       .  A
C251        C252   1.399       .  A
C251        H256   1.083       .  S
C252        C253   1.416       .  A
C252        H257   1.083       .  S
C253        C254   1.401       .  A
C254        H258   1.083       .  S
C259        C260   1.403       .  A
C259        C264   1.394       .  A
C259        H265   1.084       .  S
C260        C261   1.410       .  A
C261        C262   1.405       .  A
C261        H266   1.083       .  S
C262        C263   1.404       .  A
C262        H267   1.083       .  S
C263        C264   1.406       .  A
C264        H268   1.084       .  S
C269        C270   1.405       .  A
C269        C274   1.393       .  A
C269        H275   1.083       .  S
C270        C271   1.405       .  A
C271        C272   1.406       .  A
C271        H276   1.083       .  S
C272        C273   1.410       .  A
C272        H277   1.082       .  S
C273        C274   1.404       .  A
C274        H278   1.082       .  S
C279        C280   1.401       .  A
C279        C284   1.399       .  A
C279        H285   1.084   1_655  S
C280        C281   1.415       .  A
C281        C282   1.402       .  A
C281        H286   1.082       .  S
C282        C283   1.399       .  A
C282        H287   1.084       .  S
C283        C284   1.409       .  A
C284        H288   1.083       .  S
C289        C290   1.399       .  A
C289        C294   1.400       .  A
C289        H295   1.083       .  S
C290        C291   1.409       .  A
C291        C292   1.400       .  A
C291        H296   1.083       .  S
C292        C293   1.401       .  A
C292        H297   1.084       .  S
C293        C294   1.410       .  A
C294        H298   1.083       .  S
C299        C300   1.413       .  A
C299        C304   1.408       .  A
C299        H305   1.082       .  S
C300        C301   1.398       .  A
C301        C302   1.392       .  A
C301        H306   1.084       .  S
C302        C303   1.407       .  A
C302        H307   1.083       .  S
C303        C304   1.403       .  A
C304        H308   1.083       .  S
C309        C310   1.362       .  D
C309        H311   1.087       .  S
C310        H312   1.086       .  S
C313        C314   1.406       .  A
C313        C318   1.410       .  A
C313        H319   1.082       .  S
C314        C315   1.411       .  A
C315        C316   1.392       .  A
C315        H320   1.083       .  S
C316        C317   1.397       .  A
C316        H321   1.083       .  S
C317        C318   1.410       .  A
C318        H322   1.083       .  S
C323        C324   1.411       .  A
C323        C328   1.400       .  A
C323        H329   1.083       .  S
C324        C325   1.395       .  A
C325        C326   1.396       .  A
C325        H330   1.083       .  S
C326        C327   1.415       .  A
C326        H331   1.082       .  S
C327        C328   1.400       .  A
C328        H332   1.083       .  S
C333        C334   1.398       .  A
C333        C338   1.392       .  A
C333        H339   1.083       .  S
C334        C335   1.412       .  A
C335        C336   1.405       .  A
C335        H340   1.083       .  S
C336        C337   1.400       .  A
C336        H341   1.082       .  S
C337        C338   1.407       .  A
C338        H342   1.084       .  S
C343        C344   1.361       .  D
C343        H345   1.080       .  S
C344        H346   1.082       .  S
C347        C348   1.409       .  A
C347        C352   1.393       .  A
C347        H353   1.084   1_545  S
C348        C349   1.406       .  A
C349        C350   1.406       .  A
C349        H354   1.082       .  S
C350        C351   1.410       .  A
C350        H355   1.083       .  S
C351        C352   1.402       .  A
C352        H356   1.082       .  S
C357        C358   1.413       .  A
C357        C362   1.400       .  A
C357        H363   1.082       .  S
C358        C359   1.400       .  A
C359        C360   1.397       .  A
C359        H364   1.084       .  S
C360        C361   1.410       .  A
C360        H365   1.082       .  S
C361        C362   1.399       .  A
C362        H366   1.084       .  S
C367        C368   1.403       .  A
C367        C372   1.394       .  A
C367        H373   1.083       .  S
C368        C369   1.409       .  A
C369        C370   1.407       .  A
C369        H374   1.083       .  S
C370        C371   1.407       .  A
C370        H375   1.082       .  S
C371        C372   1.408       .  A
C372        H376   1.083   1_545  S
C377        C378   1.401       .  A
C377        C382   1.403       .  A
C377        H383   1.084       .  S
C378        C379   1.416       .  A
C379        C380   1.397       .  A
C379        H384   1.082       .  S
C380        C381   1.394       .  A
C380        H385   1.084       .  S
C381        C382   1.412       .  A
C382        H386   1.083       .  S
C387        C388   1.403       .  A
C387        C392   1.401       .  A
C387        H393   1.082   1_545  S
C388        C389   1.411       .  A
C389        C390   1.400       .  A
C389        H394   1.084       .  S
C390        C391   1.400       .  A
C390        H395   1.082       .  S
C391        C392   1.408       .  A
C392        H396   1.085       .  S
C397        C398   1.406       .  A
C397        C402   1.400       .  A
C397        H403   1.085       .  S
C398        C399   1.395       .  A
C399        C400   1.397       .  A
C399        H404   1.083       .  S
C400        C401   1.414       .  A
C400        H405   1.084       .  S
C401        C402   1.403       .  A
C402        H406   1.082       .  S
C407        C408   1.402       .  A
C407        C412   1.393       .  A
C407        H413   1.083       .  S
C408        C409   1.410       .  A
C409        C410   1.404       .  A
C409        H414   1.083       .  S
C410        C411   1.403       .  A
C410        H415   1.082       .  S
C411        C412   1.406       .  A
C412        H416   1.084       .  S
C417        C418   1.410       .  A
C417        C422   1.403       .  A
C417        H423   1.083       .  S
C418        C419   1.400       .  A
C419        C420   1.393       .  A
C419        H424   1.083       .  S
C420        C421   1.408       .  A
C420        H425   1.084       .  S
C421        C422   1.403       .  A
C422        H426   1.083       .  S
C427        C428   1.408       .  A
C427        C432   1.397       .  A
C427        H433   1.083       .  S
C428        C429   1.397       .  A
C429        C430   1.398       .  A
C429        H434   1.083       .  S
C430        C431   1.413       .  A
C430        H435   1.083       .  S
C431        C432   1.401       .  A
C432        H436   1.083       .  S
C437        C438   1.357       .  D
C437        H439   1.084       .  S
C438        H440   1.086       .  S
