geometry optimzed in LAMMPS
_audit_creation_date              2020-12-01 
_audit_creation_method            'lammps2cif' 
_symmetry_space_group_name_H-M    'P1' 
_symmetry_Int_Tables_number       1 
_symmetry_cell_setting            triclinic 
loop_ 
_symmetry_equiv_pos_as_xyz 
  x,y,z 
_cell_length_a                    44.88364897 
_cell_length_b                    44.85283910849383 
_cell_length_c                    42.826899346725654 
_cell_angle_alpha                 90.02890830589782 
_cell_angle_beta                  90.03084764433697 
_cell_angle_gamma                 89.94351203593844 
loop_ 
_atom_site_label 
_atom_site_type_symbol 
_atom_site_fract_x 
_atom_site_fract_y 
_atom_site_fract_z 
_atom_site_charge 
C1          C  0.38739403  0.26883674  0.32564421     0.80900
N2          N  0.38349045  0.24271868  0.34098236    -0.77400
C3          C  0.37986630  0.21700956  0.32481807     0.83300
N4          N  0.38039040  0.21751234  0.29307880    -0.77300
C5          C  0.38481761  0.24362276  0.27765559     0.83400
N6          N  0.38777624  0.26927443  0.29403112    -0.79100
C7          C  0.38384270  0.27214683  0.19672201     0.80900
N8          N  0.37876484  0.24675867  0.18041821    -0.77400
C9          C  0.37576940  0.22044552  0.19553726     0.83300
N10         N  0.37819449  0.21945438  0.22707832    -0.77300
C11         C  0.38358209  0.24469079  0.24352721     0.83400
N12         N  0.38588829  0.27118023  0.22833391    -0.79100
C13         C  0.20012204  0.11167329  0.32425764     0.80900
N14         N  0.22656685  0.11127241  0.33929672    -0.77400
C15         C  0.25228352  0.11074291  0.32299476     0.83300
N16         N  0.25143054  0.11108107  0.29120591    -0.77300
C17         C  0.22482856  0.11131319  0.27573099     0.83400
N18         N  0.19908817  0.11173029  0.29246801    -0.79100
C19         C  0.19955120  0.11816778  0.19257763     0.80900
N20         N  0.19860855  0.11529492  0.22439993    -0.77400
C21         C  0.22448868  0.11286714  0.24112365     0.83300
N22         N  0.25090786  0.11297967  0.22577938    -0.77300
C23         C  0.25185448  0.11501134  0.19424001     0.83400
N24         N  0.22622192  0.11783529  0.17772627    -0.79100
C25         C  0.09043903  0.22836513  0.32750127     0.80900
N26         N  0.08761532  0.22906055  0.29585478    -0.77400
C27         C  0.08955284  0.25540152  0.28023985     0.83300
N28         N  0.09476617  0.28091123  0.29694679    -0.77300
C29         C  0.09779808  0.27999538  0.32881366     0.83400
N30         N  0.09589610  0.25362239  0.34368134    -0.79100
C31         C  0.09276026  0.22994317  0.19687779     0.80900
N32         N  0.09493930  0.25644173  0.18193679    -0.77400
C33         C  0.09300188  0.28253807  0.19781519     0.83300
N34         N  0.09039567  0.28216503  0.22953655    -0.77300
C35         C  0.08899716  0.25572046  0.24526912     0.83400
N36         N  0.08977634  0.22955554  0.22866541    -0.79100
C37         C  0.21689855  0.37958554  0.32330838     0.80900
N38         N  0.24269756  0.37907415  0.33982047    -0.77400
C39         C  0.26909778  0.37598177  0.32501841     0.83300
N40         N  0.26959557  0.37391797  0.29325007    -0.77300
C41         C  0.24373535  0.37468555  0.27654298     0.83400
N42         N  0.21737959  0.37720103  0.29176754    -0.79100
C43         C  0.21905949  0.37335436  0.19379912     0.80900
N44         N  0.24527661  0.37546649  0.17870089    -0.77400
C45         C  0.27096212  0.37657830  0.19502165     0.83300
N46         N  0.27050429  0.37557397  0.22671996    -0.77300
C47         C  0.24418344  0.37400272  0.24216136     0.83400
N48         N  0.21830626  0.37316527  0.22556551    -0.79100
C49         C  0.13048539  0.47895921  0.44332005     0.80900
N50         N  0.13232777  0.47978795  0.47497175    -0.77400
C51         C  0.12821464  0.00430550  0.48994302     0.83300
N52         N  0.12371531  0.03030398  0.47429473    -0.77300
C53         C  0.12134109  0.03019018  0.44259667     0.83400
N54         N  0.12342068  0.00426955  0.42673157    -0.79100
C55         C  0.12989427  0.48034470  0.08035401     0.80900
N56         N  0.13056421  0.47921818  0.04862105    -0.77400
C57         C  0.12193637  0.00619078  0.02579619     0.83300
N58         N  0.11840836  0.03188827  0.04209319    -0.77300
C59         C  0.11940362  0.03157286  0.07380737     0.83400
N60         N  0.12375226  0.00559632  0.08912683    -0.79100
C61         C  0.46992538  0.35881818  0.44687625     0.80900
N62         N  0.49572619  0.36346826  0.43124994    -0.77400
C63         C  0.02276167  0.36279983  0.44708986     0.83300
N64         N  0.02337355  0.35986449  0.47878535    -0.77300
C65         C  0.49639380  0.35749233  0.49461032     0.83400
N66         N  0.47020657  0.35602282  0.47851175    -0.79100
C67         C  0.47066977  0.36425636  0.07610907     0.80900
N68         N  0.47159826  0.36218128  0.04441498    -0.77400
C69         C  0.49816176  0.36328384  0.02895249     0.83300
N70         N  0.02324300  0.36361421  0.04636058    -0.77300
C71         C  0.02308960  0.36520440  0.07844425     0.83400
N72         N  0.49627625  0.36773551  0.09249494    -0.79100
C73         C  0.35034302  0.02000678  0.07883505     0.80900
N74         N  0.34832480  0.01940062  0.04706419    -0.77400
C75         C  0.35150715  0.99325755  0.03100179     0.83300
N76         N  0.35138107  0.46829704  0.04561621    -0.77300
C77         C  0.35408892  0.46941338  0.07744928     0.83400
N78         N  0.35175208  0.49584871  0.09230707    -0.79100
C79         C  0.34727651  0.01815649  0.44420465     0.80900
N80         N  0.35317978  0.99243678  0.42883339    -0.77400
C81         C  0.35594244  0.46593110  0.44666668     0.83300
N82         N  0.35303289  0.46554979  0.47860258    -0.77300
C83         C  0.34794127  0.49154633  0.49480306     0.83400
N84         N  0.34360420  0.01780884  0.47594506    -0.79100
C85         C  0.45202092  0.13965770  0.07825199     0.80900
N86         N  0.45104983  0.14020043  0.04640155    -0.77400
C87         C  0.47675489  0.14280178  0.02964533     0.83300
N88         N  0.00017873  0.14351212  0.04238493    -0.77300
C89         C  0.00057785  0.14443952  0.07405305     0.83400
N90         N  0.47851074  0.14204879  0.09315015    -0.79100
C91         C  0.44939735  0.13199743  0.44636114     0.80900
N92         N  0.47601793  0.13389479  0.43161610    -0.77400
C93         C  0.00392441  0.12803054  0.44252026     0.83300
N94         N  0.00303418  0.12702782  0.47403927    -0.77300
C95         C  0.47418958  0.13233693  0.49502123     0.83400
N96         N  0.44831966  0.13136740  0.47825647    -0.79100
O97         O  0.05593113  0.12398708  0.44052989    -0.77800
C98         C  0.11563515  0.05757685  0.42536618     0.83200
O99         O  0.14837482  0.17968986  0.42386352    -0.78900
O100        O  0.15436213  0.09491464  0.34365972    -0.80400
O101        O  0.05236758  0.11912212  0.32797894    -0.80200
O102        O  0.03159818  0.13910562  0.39792580    -0.78800
Zn103      Zn  0.09889395  0.12181087  0.42899544     1.55700
O104        O  0.08719460  0.08405786  0.32335533    -0.80200
Cd105      Cd  0.06509743  0.14258149  0.36648789     1.59700
Cd106      Cd  0.13523203  0.15942115  0.38121646     1.59600
O107        O  0.06959719  0.18480780  0.34863225    -0.80200
O108        O  0.10326203  0.12879974  0.38519489    -1.90700
Cd109      Cd  0.11289050  0.09090688  0.36328780     1.59900
O110        O  0.11849859  0.19310078  0.35411506    -0.80200
O111        O  0.11368629  0.05658661  0.39559290    -0.78800
C112        C  0.13835599  0.17343958  0.45096828     0.83700
C113        C  0.03202715  0.13070489  0.42624287     0.83400
O114        O  0.11261201  0.08158197  0.44072241    -0.77800
C115        C  0.06617840  0.09979594  0.31200811     0.84200
O116        O  0.12064746  0.15160669  0.45498813    -0.77900
C117        C  0.09284500  0.20036124  0.34398711     0.84300
C118        C  0.17328011  0.11595719  0.34246037     0.84600
O119        O  0.16985889  0.14084102  0.35643850    -0.80300
O120        O  0.10362626  0.08103233  0.07669220    -0.77800
C121        C  0.02860132  0.14252323  0.09086517     0.83200
O122        O  0.14088640  0.18008507  0.08446371    -0.78900
O123        O  0.07246842  0.18422318  0.17824244    -0.80400
O124        O  0.08178431  0.08050069  0.18570165    -0.80200
O125        O  0.11878178  0.05949592  0.12069765    -0.78800
Zn126      Zn  0.09176751  0.12157343  0.08859589     1.55700
O127        O  0.04534976  0.11334109  0.17883399    -0.80200
Cd128      Cd  0.11259318  0.09377743  0.15246936     1.59700
Cd129      Cd  0.13266606  0.16302233  0.13140533     1.59600
O130        O  0.15182519  0.10198142  0.17667332    -0.80200
O131        O  0.10058186  0.13153307  0.13090344    -1.90700
Cd132      Cd  0.06338533  0.14643914  0.15106999     1.59900
O133        O  0.16961317  0.14408802  0.15530622    -0.80200
O134        O  0.03108673  0.15452516  0.11772347    -0.78800
C135        C  0.12851327  0.17056142  0.05927763     0.83700
C136        C  0.11386842  0.05879120  0.09138913     0.83400
O137        O  0.04938149  0.12741472  0.07856026    -0.77800
C138        C  0.06007931  0.09572670  0.19620141     0.84200
O139        O  0.11117394  0.14841425  0.05971839    -0.77900
C140        C  0.17208439  0.12173866  0.17394576     0.84300
C141        C  0.09448626  0.20225607  0.17802245     0.84600
O142        O  0.11735613  0.19802502  0.16058323    -0.80300
N143        N  0.14993297  0.18874785  0.00703982    -0.02800
C144        C  0.12794083  0.18675123  0.02900986    -0.00200
C145        C  0.10074465  0.19402051  0.01615558    -0.23100
C146        C  0.11270978  0.20372141  0.48621317    -0.23300
C147        C  0.14109094  0.19458168  0.47764468    -0.00300
H148        H  0.07914725  0.19237929  0.02727879     0.13500
H149        H  0.09426144  0.20794171  0.47046580     0.13500
N150        N  0.05368748  0.08959179  0.25474445    -0.02800
C151        C  0.06264938  0.10437504  0.22868871    -0.00200
C152        C  0.07979991  0.12885199  0.23596349    -0.23100
C153        C  0.08200698  0.12948092  0.26753564    -0.23300
C154        C  0.06620148  0.10530156  0.27850503    -0.00300
H155        H  0.09082980  0.14375901  0.21983693     0.13500
H156        H  0.09465252  0.14538736  0.28119677     0.13500
N157        N  0.28298843  0.24835512  0.01044984    -0.35900
N158        N  0.23162439  0.20732250  0.01388885    -0.56500
N159        N  0.19213155  0.25911756  0.01426193    -0.35900
N160        N  0.24268031  0.30051276  0.01449394    -0.56500
C161        C  0.29743964  0.22171929  0.01375313     0.27700
C162        C  0.30327361  0.27075463  0.01379364     0.27700
C163        C  0.17314098  0.23674911  0.02195016     0.27700
C164        C  0.17877492  0.28513905  0.02246384     0.27700
C165        C  0.25352441  0.18711043  0.00860741     0.36300
C166        C  0.20526498  0.19303031  0.00953992     0.36300
C167        C  0.26878701  0.31524699  0.00990886     0.36300
C168        C  0.22008764  0.32065451  0.01178371     0.36300
C169        C  0.32737587  0.22733245  0.01887965    -0.21200
C170        C  0.33105130  0.25800130  0.01886721    -0.21200
C171        C  0.14786183  0.24920468  0.03558567    -0.21200
C172        C  0.15126789  0.27938727  0.03538554    -0.21200
C173        C  0.24084607  0.15967767  0.00163712    -0.22300
C174        C  0.21033476  0.16352968  0.00190613    -0.22300
C175        C  0.26266716  0.34518812  0.00481490    -0.22300
C176        C  0.23193155  0.34855557  0.00582702    -0.22300
C177        C  0.28477682  0.19241645  0.01112844    -0.17600
C178        C  0.29805314  0.30235396  0.01140512    -0.17600
C179        C  0.18918029  0.31424221  0.01643856    -0.17600
C180        C  0.17673104  0.20591130  0.01409483    -0.17600
H181        H  0.34486883  0.21098634  0.02206911     0.15300
H182        H  0.35197260  0.26957263  0.02208385     0.15300
H183        H  0.12856205  0.23864506  0.04543459     0.15300
H184        H  0.13492800  0.29518324  0.04373957     0.15300
H185        H  0.25234731  0.13897581  0.99680174     0.13600
H186        H  0.19377918  0.14647620  0.99762340     0.13600
H187        H  0.27869402  0.36279244  0.00083862     0.13600
H188        H  0.21973419  0.36920798  0.00300764     0.13600
H189        H  0.26069676  0.25108799  0.00510029     0.26800
H190        H  0.21177791  0.25696247  0.00168370     0.26800
O191        O  0.36120614  0.17033039  0.19361468    -0.77800
C192        C  0.28055027  0.11509092  0.17822458     0.83200
O193        O  0.39688570  0.07174389  0.18180530    -0.78900
O194        O  0.32613844  0.06410017  0.09751032    -0.80400
O195        O  0.33386182  0.17059317  0.08134422    -0.80200
O196        O  0.36862098  0.19392308  0.14845612    -0.78800
Zn197      Zn  0.34646400  0.12999882  0.18212216     1.55700
O198        O  0.30059042  0.13388331  0.08489554    -0.80200
Cd199      Cd  0.36359423  0.15948807  0.11684114     1.59700
Cd200      Cd  0.38738328  0.09170744  0.13753928     1.59600
O201        O  0.40384676  0.15356743  0.09420092    -0.80200
O202        O  0.35357300  0.12144401  0.13896526    -1.90700
Cd203      Cd  0.31663714  0.10540402  0.11910120     1.59900
O204        O  0.42342605  0.11178112  0.11446340    -0.80200
O205        O  0.28244469  0.10348654  0.15114646    -0.78800
C206        C  0.38376049  0.07790879  0.20749656     0.83700
C207        C  0.36824170  0.19349411  0.17821275     0.83400
O208        O  0.30279687  0.12699452  0.19182837    -0.77800
C209        C  0.31288641  0.15499934  0.06978962     0.84200
O210        O  0.36585504  0.09984187  0.20941681    -0.77900
C211        C  0.42494177  0.13469531  0.09664988     0.84300
C212        C  0.35001077  0.04848201  0.09606405     0.84600
O213        O  0.37402975  0.05627075  0.10973065    -0.80300
O214        O  0.30335856  0.12261248  0.32641513    -0.77800
C215        C  0.37176494  0.18970044  0.34153817     0.83200
O216        O  0.39527735  0.06780719  0.33927461    -0.78900
O217        O  0.40134902  0.14729986  0.43066200    -0.80400
O218        O  0.30428499  0.12934513  0.43930501    -0.80200
O219        O  0.28145901  0.10252724  0.36830812    -0.78800
Zn220      Zn  0.34659043  0.12730266  0.33771359     1.55700
O221        O  0.33109903  0.17052326  0.43317581    -0.80200
Cd222      Cd  0.31556758  0.10288251  0.40134343     1.59700
Cd223      Cd  0.38577156  0.08776752  0.38366945     1.59600
O224        O  0.32379325  0.06141114  0.42280521    -0.80200
O225        O  0.35283524  0.11810532  0.38115147    -1.90700
Cd226      Cd  0.36425184  0.15567087  0.40322671     1.59900
O227        O  0.37203825  0.05339987  0.41284375    -0.80200
O228        O  0.37425065  0.18889182  0.37120056    -0.78800
C229        C  0.38391629  0.07541971  0.31303551     0.83700
C230        C  0.28060595  0.11180700  0.34006291     0.83400
O231        O  0.36148988  0.16783005  0.32601577    -0.77800
C232        C  0.31602976  0.15299255  0.45028379     0.84200
O233        O  0.36713104  0.09812883  0.31077636    -0.77900
C234        C  0.34765839  0.04612776  0.42610310     0.84300
C235        C  0.42248275  0.12857693  0.42732005     0.84600
O236        O  0.42155931  0.10733781  0.40731844    -0.80300
N237        N  0.40142930  0.05861376  0.25989411    -0.02800
C238        C  0.38294431  0.05694343  0.23441818    -0.00200
C239        C  0.35431757  0.05012636  0.24401495    -0.23100
C240        C  0.35453226  0.04898677  0.27572163    -0.23300
C241        C  0.38324797  0.05536098  0.28542754    -0.00300
H242        H  0.33436107  0.05080531  0.22978234     0.13500
H243        H  0.33474488  0.04877848  0.29020793     0.13500
N244        N  0.30422305  0.16624678  0.01124012    -0.02800
C245        C  0.31414482  0.14998211  0.03624568    -0.00200
C246        C  0.32942789  0.12481412  0.02709597    -0.23100
C247        C  0.34598102  0.13036537  0.49114147    -0.23300
C248        C  0.32435706  0.15084149  0.48315120    -0.00300
H249        H  0.33989197  0.10832440  0.04200421     0.13500
H250        H  0.35851295  0.11612038  0.47548241     0.13500
O251        O  0.16470388  0.37401428  0.32698485    -0.77800
C252        C  0.10492394  0.30703798  0.34701401     0.83200
O253        O  0.08581513  0.43497296  0.34845555    -0.78900
O254        O  0.07160736  0.34861144  0.43274265    -0.80400
O255        O  0.17310711  0.37630893  0.43937255    -0.80200
O256        O  0.18985229  0.39210617  0.36770672    -0.78800
Zn257      Zn  0.12209429  0.37103344  0.34166554     1.55700
O258        O  0.14375627  0.33740786  0.44924279    -0.80200
Cd259      Cd  0.15773740  0.39634704  0.40023665     1.59700
Cd260      Cd  0.08886107  0.40942592  0.39044884     1.59600
O261        O  0.15204641  0.43973381  0.41470780    -0.80200
O262        O  0.12007539  0.37856167  0.38583380    -1.90700
Cd263      Cd  0.11260510  0.34156531  0.41070888     1.59900
O264        O  0.10303947  0.43938137  0.42334779    -0.80200
O265        O  0.10765573  0.30626049  0.37703323    -0.78800
C266        C  0.09059875  0.42553558  0.32072883     0.83700
C267        C  0.18887965  0.38225780  0.33997093     0.83400
O268        O  0.10860484  0.33079267  0.33159331    -0.77800
C269        C  0.16467385  0.35544732  0.45725275     0.84200
O270        O  0.09704526  0.39838215  0.31575371    -0.77900
C271        C  0.12868490  0.45087487  0.42682787     0.84300
C272        C  0.05021100  0.36713451  0.42907019     0.84600
O273        O  0.05159110  0.38924081  0.41015866    -0.80300
O274        O  0.07569624  0.37167222  0.08316724    -0.77800
C275        C  0.12871358  0.45293644  0.09826189     0.83200
O276        O  0.15153320  0.33152977  0.08996772    -0.78900
O277        O  0.18056562  0.40093414  0.17215827    -0.80400
O278        O  0.07985445  0.40840957  0.20316702    -0.80200
O279        O  0.04828954  0.37489574  0.12708810    -0.78800
Zn280      Zn  0.11372222  0.39030721  0.09943998     1.55700
O281        O  0.12210902  0.43329445  0.19411036    -0.80200
Cd282      Cd  0.08045161  0.37626824  0.16462412     1.59700
Cd283      Cd  0.14265016  0.34357987  0.13790963     1.59600
O284        O  0.08238652  0.33363737  0.18590567    -0.80200
O285        O  0.11808611  0.38127788  0.14152605    -1.90700
Cd286      Cd  0.14091737  0.41599250  0.15544187     1.59900
O287        O  0.11980169  0.31037959  0.16106780    -0.80200
O288        O  0.14450948  0.44984789  0.12273618    -0.78800
C289        C  0.15587265  0.35348059  0.07166927     0.83700
C290        C  0.05056385  0.37071115  0.09720834     0.83400
O291        O  0.11150190  0.43256207  0.08875451    -0.77800
C292        C  0.10003137  0.42735930  0.21146584     0.84200
O293        O  0.15391585  0.37925941  0.08298400    -0.77900
C294        C  0.09843196  0.31049207  0.18072728     0.84300
C295        C  0.19189102  0.37516919  0.17573448     0.84600
O296        O  0.18080916  0.35145049  0.16399210    -0.80300
N297        N  0.16643229  0.33741221  0.01415982    -0.02800
C298        C  0.15172494  0.35242029  0.03750859    -0.00200
C299        C  0.12969093  0.37060511  0.02534214    -0.23100
C300        C  0.17441582  0.38813611  0.50248081    -0.23300
C301        C  0.17388695  0.35963959  0.49036828    -0.00300
H302        H  0.11485852  0.38527637  0.03804054     0.13500
H303        H  0.16927659  0.40869095  0.49034679     0.13500
N304        N  0.08313985  0.44399837  0.26647624    -0.02800
C305        C  0.10389779  0.43777660  0.24434057    -0.00200
C306        C  0.13189629  0.43857363  0.25764463    -0.23100
C307        C  0.12814286  0.44513923  0.28856359    -0.23300
C308        C  0.09775520  0.44594280  0.29445900    -0.00300
H309        H  0.15286090  0.43318563  0.24647740     0.13500
H310        H  0.14561911  0.44316227  0.30592168     0.13500
O311        O  0.32249053  0.37117886  0.19339429    -0.77800
C312        C  0.38308872  0.30057165  0.18029148     0.83200
O313        O  0.42526736  0.40608512  0.18023894    -0.78900
O314        O  0.42639179  0.34184414  0.09555671    -0.80400
O315        O  0.32137918  0.35261625  0.08133367    -0.80200
O316        O  0.29902992  0.38243033  0.14904433    -0.78800
Zn317      Zn  0.36456444  0.36558449  0.18261173     1.55700
O318        O  0.35628558  0.31752916  0.08477464    -0.80200
Cd319      Cd  0.33328555  0.38148760  0.11709617     1.59700
Cd320      Cd  0.40212475  0.40330729  0.13626281     1.59600
O321        O  0.33953794  0.42181749  0.09465596    -0.80200
O322        O  0.37139008  0.37103729  0.13846663    -1.90700
Cd323      Cd  0.38575104  0.33373586  0.11819402     1.59900
O324        O  0.38213575  0.44056922  0.11405792    -0.80200
O325        O  0.38910753  0.30084414  0.15124635    -0.78800
C326        C  0.41473774  0.40004355  0.20727427     0.83700
C327        C  0.29899367  0.37717344  0.17828942     0.83400
O328        O  0.37449408  0.32370312  0.19495252    -0.77800
C329        C  0.33570505  0.33080764  0.06973196     0.84200
O330        O  0.38762918  0.39275747  0.21045854    -0.77900
C331        C  0.35908072  0.44236930  0.09626428     0.84300
C332        C  0.44228648  0.36534693  0.09301839     0.84600
O333        O  0.43537034  0.38982716  0.10622953    -0.80300
O334        O  0.37403414  0.31915636  0.32886133    -0.77800
C335        C  0.29689209  0.37411906  0.34324858     0.83200
O336        O  0.42334111  0.40360815  0.34101361    -0.78900
O337        O  0.33950621  0.41934025  0.42741500    -0.80400
O338        O  0.35493712  0.31254338  0.43498184    -0.80200
O339        O  0.39202418  0.29712233  0.37156376    -0.78800
Zn340      Zn  0.36282762  0.36081051  0.34027262     1.55700
O341        O  0.32471820  0.35105727  0.44309252    -0.80200
Cd342      Cd  0.38553706  0.32981559  0.40419015     1.59700
Cd343      Cd  0.40229375  0.39893722  0.38600560     1.59600
O344        O  0.42460447  0.33748499  0.42916170    -0.80200
O345        O  0.37071485  0.36734903  0.38389271    -1.90700
Cd346      Cd  0.33255174  0.37867473  0.40501269     1.59900
O347        O  0.43649183  0.38358722  0.41393870    -0.80200
O348        O  0.29698051  0.37948970  0.37265601    -0.78800
C349        C  0.41249918  0.39642518  0.31435792     0.83700
C350        C  0.38506021  0.29667859  0.34280243     0.83400
O351        O  0.32044286  0.36679662  0.32880659    -0.77800
C352        C  0.33852065  0.32801783  0.45280899     0.84200
O353        O  0.38607984  0.38675697  0.31189717    -0.77900
C354        C  0.44193893  0.35998034  0.42941499     0.84300
C355        C  0.36047785  0.43854573  0.42788350     0.84600
O356        O  0.38425005  0.43562812  0.41132108    -0.80300
N357        N  0.43297647  0.41044658  0.26142733    -0.02800
C358        C  0.43392627  0.39362897  0.23487102    -0.00200
C359        C  0.43465226  0.36384088  0.24325406    -0.23100
C360        C  0.43237286  0.36242286  0.27508245    -0.23300
C361        C  0.43110051  0.39136285  0.28611877    -0.00300
H362        H  0.43141692  0.34505611  0.22771070     0.13500
H363        H  0.42767145  0.34239492  0.28830687     0.13500
N364        N  0.32414816  0.32199712  0.01125148    -0.02800
C365        C  0.34038878  0.33224759  0.03617810    -0.00200
C366        C  0.36475610  0.34866087  0.02700246    -0.23100
C367        C  0.37069177  0.34534774  0.49477909    -0.23300
C368        C  0.34666134  0.32830862  0.48570792    -0.00300
H369        H  0.38090635  0.35965232  0.04188871     0.13500
H370        H  0.38579103  0.35754143  0.47977635     0.13500
N371        N  0.48457114  0.04519724  0.26229608    -0.35900
N372        N  0.44750975  0.49246392  0.26127513    -0.56500
N373        N  0.50177109  0.45648971  0.26004459    -0.35900
N374        N  0.03695672  0.51270198  0.25660558    -0.56500
C375        C  0.45689326  0.05698412  0.25808864     0.27700
C376        C  0.00425336  0.06539087  0.25395757     0.27700
C377        C  0.48145193  0.43528177  0.26708134     0.27700
C378        C  0.02897012  0.44599666  0.26162354     0.27700
C379        C  0.42704737  0.00942802  0.26019128     0.36300
C380        C  0.43533379  0.46496353  0.25807109     0.36300
C381        C  0.05117583  0.03529872  0.26022330     0.36300
C382        C  0.05944901  0.49253697  0.25638792     0.36300
C383        C  0.45959825  0.08718989  0.25212786    -0.21200
C384        C  0.98946290  0.09123239  0.24516018    -0.21200
C385        C  0.49644507  0.40958979  0.27635530    -0.21200
C386        C  0.02651904  0.41594114  0.26771556    -0.21200
C387        C  0.40065925  0.99308917  0.25932366    -0.22300
C388        C  0.40565991  0.46699978  0.25052212    -0.22300
C389        C  0.08169221  0.03288049  0.26404241    -0.22300
C390        C  0.08645027  0.50752602  0.25424993    -0.22300
C391        C  0.42917082  0.04148665  0.25953693    -0.17600
C392        C  0.03587478  0.06274567  0.25667090    -0.17600
C393        C  0.05642516  0.46098018  0.26018932    -0.17600
C394        C  0.44999497  0.43773724  0.26318859    -0.17600
H395        H  0.44172636  0.10284833  0.24768845     0.15300
H396        H  0.99936780  0.11238416  0.23889999     0.15300
H397        H  0.48741452  0.38827458  0.28298029     0.15300
H398        H  0.04437750  0.40014422  0.27166198     0.15300
H399        H  0.37809048  0.00052629  0.25774619     0.13600
H400        H  0.39001921  0.44896236  0.24696815     0.13600
H401        H  0.09777318  0.05077912  0.26558086     0.13600
H402        H  0.10859508  0.49810268  0.25394534     0.13600
H403        H  0.48950425  0.02352048  0.26847473     0.26800
H404        H  0.49730531  0.47721855  0.25055940     0.26800
C405        C  0.38012119  0.27053335  0.82740712     0.80900
N406        N  0.37793175  0.24474886  0.84367487    -0.77400
C407        C  0.37505603  0.21849912  0.82835026     0.83300
N408        N  0.37475891  0.21801471  0.79662940    -0.77300
C409        C  0.37732820  0.24372405  0.78022449     0.83400
N410        N  0.37952816  0.27002950  0.79572337    -0.79100
C411        C  0.37791973  0.26929741  0.69833695     0.80900
N412        N  0.37671902  0.24322195  0.68256728    -0.77400
C413        C  0.37505530  0.21715407  0.69823354     0.83300
N414        N  0.37502098  0.21716180  0.73002252    -0.77300
C415        C  0.37686958  0.24332955  0.74596193     0.83400
N416        N  0.37781225  0.26940422  0.72998818    -0.79100
C417        C  0.20055988  0.11170356  0.82649657     0.80900
N418        N  0.22703461  0.11102708  0.84170739    -0.77400
C419        C  0.25295272  0.11031344  0.82552405     0.83300
N420        N  0.25226719  0.11096138  0.79369141    -0.77300
C421        C  0.22581148  0.11143078  0.77791870     0.83400
N422        N  0.19989686  0.11183736  0.79457723    -0.79100
C423        C  0.20130223  0.11615395  0.69397570     0.80900
N424        N  0.20001689  0.11412231  0.72591264    -0.77400
C425        C  0.22584748  0.11268316  0.74298145     0.83300
N426        N  0.25244631  0.11303721  0.72763611    -0.77300
C427        C  0.25340237  0.11445485  0.69589727     0.83400
N428        N  0.22791300  0.11628429  0.67944767    -0.79100
C429        C  0.09196987  0.22566759  0.82095512     0.80900
N430        N  0.09265230  0.22641355  0.78906066    -0.77400
C431        C  0.09594499  0.25298900  0.77381591     0.83300
N432        N  0.09945248  0.27842540  0.79117351    -0.77300
C433        C  0.09895499  0.27740399  0.82314412     0.83400
N434        N  0.09525058  0.25102085  0.83757028    -0.79100
C435        C  0.10169796  0.22974631  0.68953167     0.80900
N436        N  0.10577566  0.25642228  0.67552020    -0.77400
C437        C  0.10485900  0.28198700  0.69222810     0.83300
N438        N  0.10094767  0.28087036  0.72384177    -0.77300
C439        C  0.09782611  0.25409609  0.73874385     0.83400
N440        N  0.09784189  0.22847623  0.72124414    -0.79100
C441        C  0.21782595  0.39044572  0.82777221     0.80900
N442        N  0.24411614  0.38961472  0.84335519    -0.77400
C443        C  0.27019151  0.38882410  0.82745940     0.83300
N444        N  0.26994901  0.38908653  0.79569473    -0.77300
C445        C  0.24376173  0.39048784  0.77982220     0.83400
N446        N  0.21767600  0.39071204  0.79599667    -0.79100
C447        C  0.21727958  0.39019460  0.69788010     0.80900
N448        N  0.24295429  0.38645579  0.68198630    -0.77400
C449        C  0.26911674  0.38484568  0.69729959     0.83300
N450        N  0.26949011  0.38645985  0.72909869    -0.77300
C451        C  0.24360392  0.39001275  0.74534033     0.83400
N452        N  0.21738198  0.39179153  0.72953453    -0.79100
C453        C  0.13029368  0.47546140  0.94995833     0.80900
N454        N  0.13192239  0.47659302  0.98174062    -0.77400
C455        C  0.12150215  0.00624738  0.99161409     0.83300
N456        N  0.11554677  0.03160040  0.97532681    -0.77300
C457        C  0.11470468  0.03091361  0.94353718     0.83400
N458        N  0.11968596  0.00511659  0.92834686    -0.79100
C459        C  0.13533413  0.47995563  0.57220070     0.80900
N460        N  0.13469804  0.48045663  0.54055101    -0.77400
C461        C  0.12958859  0.00376677  0.52421946     0.83300
N462        N  0.12782742  0.02944249  0.54098910    -0.77300
C463        C  0.12817850  0.02875957  0.57278674     0.83400
N464        N  0.13028017  0.00226445  0.58762341    -0.79100
C465        C  0.47141126  0.36251711  0.94632681     0.80900
N466        N  0.49722954  0.36565597  0.93036466    -0.77400
C467        C  0.01970778  0.36742041  0.94618150     0.83300
N468        N  0.02118871  0.36458023  0.97791580    -0.77300
C469        C  0.49837104  0.36252257  0.99396877     0.83400
N470        N  0.47195187  0.36120625  0.97811184    -0.79100
C471        C  0.46868460  0.35772914  0.57685029     0.80900
N472        N  0.46946592  0.35558108  0.54510268    -0.77400
C473        C  0.49590940  0.35757721  0.52951829     0.83300
N474        N  0.02303479  0.36364790  0.54617698    -0.77300
C475        C  0.02222968  0.36681513  0.57794012     0.83400
N476        N  0.49422182  0.36226515  0.59311271    -0.79100
C477        C  0.34285783  0.01779396  0.57590400     0.80900
N478        N  0.34092768  0.01760590  0.54394554    -0.77400
C479        C  0.34430108  0.99148932  0.52755554     0.83300
N480        N  0.35155036  0.46662962  0.54695174    -0.77300
C481        C  0.35431366  0.46763168  0.57876793     0.83400
N482        N  0.35329074  0.49422929  0.59366006    -0.79100
C483        C  0.35239818  0.02137032  0.94856192     0.80900
N484        N  0.35948831  0.99632510  0.93255825    -0.77400
C485        C  0.35823316  0.46938737  0.94577964     0.83300
N486        N  0.35409833  0.46832519  0.97746179    -0.77300
C487        C  0.34713519  0.49369470  0.99378839     0.83400
N488        N  0.34920778  0.02021750  0.98025420    -0.79100
C489        C  0.45196380  0.12434271  0.57862953     0.80900
N490        N  0.44971219  0.12717644  0.54694482    -0.77400
C491        C  0.47487760  0.13007493  0.52941842     0.83300
N492        N  0.00414612  0.12699268  0.53814410    -0.77300
C493        C  0.00603675  0.12793025  0.56966270     0.83400
N494        N  0.47889797  0.12536654  0.59262744    -0.79100
C495        C  0.45215461  0.13524249  0.94682663     0.80900
N496        N  0.47872741  0.13508044  0.93199651    -0.77400
C497        C  0.00248923  0.13753306  0.94567808     0.83300
N498        N  0.00119433  0.14049772  0.97717568    -0.77300
C499        C  0.47690175  0.14099406  0.99515326     0.83400
N500        N  0.45111241  0.13841596  0.97850193    -0.79100
O501        O  0.05450089  0.13076094  0.94337546    -0.77800
C502        C  0.10964473  0.05793326  0.92549950     0.83200
O503        O  0.14155411  0.18229101  0.92461315    -0.78900
O504        O  0.15290446  0.09588011  0.84310795    -0.80400
O505        O  0.04609522  0.11565541  0.83162697    -0.80200
O506        O  0.03037534  0.14436841  0.90006250    -0.78800
Zn507      Zn  0.09671475  0.12325638  0.92993859     1.55700
O508        O  0.08440548  0.08557523  0.82253198    -0.80200
Cd509      Cd  0.06266842  0.14303158  0.86635969     1.59700
Cd510      Cd  0.13322421  0.15937278  0.88163548     1.59600
O511        O  0.06936739  0.18339768  0.84384606    -0.80200
O512        O  0.10091442  0.12910296  0.88536826    -1.90700
Cd513      Cd  0.11077341  0.09138435  0.86272011     1.59900
O514        O  0.11833582  0.19079521  0.85024349    -0.80200
O515        O  0.11063215  0.05702123  0.89559526    -0.78800
C516        C  0.13593091  0.17347753  0.95241564     0.83700
C517        C  0.03077507  0.13811866  0.92905815     0.83400
O518        O  0.10521471  0.08180903  0.94058921    -0.77800
C519        C  0.06123315  0.09947766  0.81320782     0.84200
O520        O  0.12333650  0.14848490  0.95714359    -0.77900
C521        C  0.09323844  0.19788286  0.83844213     0.84300
C522        C  0.17311541  0.11579900  0.84459402     0.84600
O523        O  0.17020398  0.13965624  0.86068852    -0.80300
O524        O  0.11656189  0.07926687  0.57457309    -0.77800
C525        C  0.03477445  0.13143234  0.58499285     0.83200
O526        O  0.14974904  0.17697171  0.58184766    -0.78900
O527        O  0.07804155  0.18842434  0.66518041    -0.80400
O528        O  0.08362625  0.08583537  0.68711168    -0.80200
O529        O  0.12161875  0.05637354  0.62044975    -0.78800
Zn530      Zn  0.10062217  0.11871948  0.58429901     1.55700
O531        O  0.05206283  0.12353123  0.67931704    -0.80200
Cd532      Cd  0.11516403  0.09269506  0.65151152     1.59700
Cd533      Cd  0.13994362  0.15979515  0.62803995     1.59600
O534        O  0.15360547  0.10072890  0.67716250    -0.80200
O535        O  0.10669807  0.12974573  0.62689510    -1.90700
Cd536      Cd  0.06934533  0.14769162  0.64323108     1.59900
O537        O  0.17455286  0.14026494  0.65370108    -0.80200
O538        O  0.03613528  0.14657123  0.61013423    -0.78800
C539        C  0.13715071  0.16873000  0.55633014     0.83700
C540        C  0.12236397  0.05621168  0.59048927     0.83400
O541        O  0.05742472  0.11861301  0.57327216    -0.77800
C542        C  0.06286620  0.10316290  0.69648726     0.84200
O543        O  0.11929137  0.14692542  0.55574488    -0.77900
C544        C  0.17476143  0.11944788  0.67426373     0.84300
C545        C  0.10221528  0.20273951  0.66983666     0.84600
O546        O  0.12675639  0.19512017  0.65696431    -0.80300
N547        N  0.15714615  0.18752068  0.50400364    -0.02800
C548        C  0.13650001  0.18690392  0.52747391    -0.00200
C549        C  0.10915262  0.19644397  0.51677270    -0.23100
C550        C  0.10579464  0.20119009  0.98574347    -0.23300
C551        C  0.13541398  0.19467560  0.97936058    -0.00300
H552        H  0.08825034  0.19607624  0.52938577     0.13500
H553        H  0.08816846  0.20381689  0.96863512     0.13500
N554        N  0.05120198  0.09269814  0.75438576    -0.02800
C555        C  0.06099002  0.10956355  0.72995908    -0.00200
C556        C  0.07455702  0.13531605  0.74035549    -0.23100
C557        C  0.07420112  0.13434608  0.77197633    -0.23300
C558        C  0.06035686  0.10809636  0.78017331    -0.00300
H559        H  0.08517063  0.15229751  0.72624699     0.13500
H560        H  0.08446603  0.15038099  0.78751441     0.13500
N561        N  0.29036791  0.24491173  0.50940876    -0.35900
N562        N  0.23917357  0.20484127  0.51031620    -0.56500
N563        N  0.19983195  0.25804395  0.50558892    -0.35900
N564        N  0.25110194  0.29709275  0.50829824    -0.56500
C565        C  0.30436160  0.21844995  0.51420954     0.27700
C566        C  0.31053521  0.26696366  0.51440603     0.27700
C567        C  0.18106512  0.23618767  0.51517250     0.27700
C568        C  0.18698777  0.28460341  0.51331600     0.27700
C569        C  0.26093574  0.18420315  0.50604767     0.36300
C570        C  0.21269207  0.19109373  0.50533824     0.36300
C571        C  0.27760524  0.31136918  0.50670260     0.36300
C572        C  0.22979494  0.31815639  0.50455221     0.36300
C573        C  0.33386719  0.22388163  0.52206020    -0.21200
C574        C  0.33770169  0.25435542  0.52225786    -0.21200
C575        C  0.15648731  0.24964854  0.52931866    -0.21200
C576        C  0.16000166  0.27983057  0.52747575    -0.21200
C577        C  0.24812981  0.15693485  0.49889528    -0.22300
C578        C  0.21757808  0.16134078  0.49827025    -0.22300
C579        C  0.27323917  0.34157282  0.50247240    -0.22300
C580        C  0.24306191  0.34589782  0.50098750    -0.22300
C581        C  0.29203226  0.18944290  0.50993875    -0.17600
C582        C  0.30585443  0.29814020  0.51070781    -0.17600
C583        C  0.19868900  0.31331901  0.50813122    -0.17600
C584        C  0.18429796  0.20477671  0.50917171    -0.17600
H585        H  0.35112956  0.20765280  0.52674054     0.15300
H586        H  0.35833764  0.26588214  0.52722434     0.15300
H587        H  0.13805374  0.23977998  0.54145082     0.15300
H588        H  0.14471148  0.29636511  0.53652066     0.15300
H589        H  0.25957027  0.13605241  0.49477822     0.13600
H590        H  0.20086669  0.14450374  0.49373219     0.13600
H591        H  0.29002862  0.35883271  0.50119379     0.13600
H592        H  0.23246805  0.36734276  0.49838315     0.13600
H593        H  0.26874153  0.24771127  0.50158905     0.26800
H594        H  0.21937713  0.25499310  0.49294337     0.26800
O595        O  0.36043443  0.16719705  0.69549868    -0.77800
C596        C  0.28163739  0.11474383  0.67900262     0.83200
O597        O  0.39156298  0.06500258  0.68388463    -0.78900
O598        O  0.32166222  0.06351151  0.59531852    -0.80400
O599        O  0.34320362  0.16838810  0.58181640    -0.80200
O600        O  0.37435188  0.18911071  0.65133618    -0.78800
Zn601      Zn  0.34748352  0.12697944  0.68290092     1.55700
O602        O  0.30836367  0.13306512  0.57937261    -0.80200
Cd603      Cd  0.36858045  0.15466081  0.61944558     1.59700
Cd604      Cd  0.38388577  0.08389509  0.63865578     1.59600
O605        O  0.40776246  0.14433622  0.59781684    -0.80200
O606        O  0.35400356  0.11739421  0.63963313    -1.90700
Cd607      Cd  0.31653214  0.10549025  0.61745498     1.59900
O608        O  0.42140405  0.09903985  0.61485573    -0.80200
O609        O  0.28203883  0.10747704  0.65006889    -0.78800
C610        C  0.38216438  0.07552182  0.70987004     0.83700
C611        C  0.37011844  0.18964037  0.68078305     0.83400
O612        O  0.30486534  0.12269749  0.69367731    -0.77800
C613        C  0.32339983  0.15398187  0.56688103     0.84200
O614        O  0.36754616  0.09958327  0.71111814    -0.77900
C615        C  0.42554525  0.12229367  0.59811768     0.84300
C616        C  0.34393431  0.04570756  0.59426276     0.84600
O617        O  0.36764896  0.05047795  0.60987856    -0.80300
O618        O  0.30402621  0.12281659  0.82943268    -0.77800
C619        C  0.36910072  0.19123293  0.84574780     0.83200
O620        O  0.39635099  0.06885392  0.84295099    -0.78900
O621        O  0.40357635  0.14947785  0.93223445    -0.80400
O622        O  0.30019165  0.13369501  0.93764826    -0.80200
O623        O  0.28276091  0.10087621  0.87051650    -0.78800
Zn624      Zn  0.34738958  0.12768433  0.84096510     1.55700
O625        O  0.33402013  0.16988625  0.94121571    -0.80200
Cd626      Cd  0.31644815  0.10420682  0.90422115     1.59700
Cd627      Cd  0.38753048  0.09029915  0.88647071     1.59600
O628        O  0.32693820  0.06431861  0.92852831    -0.80200
O629        O  0.35371545  0.11972250  0.88454829    -1.90700
Cd630      Cd  0.36470210  0.15714473  0.90730962     1.59900
O631        O  0.37493807  0.05686556  0.91650182    -0.80200
O632        O  0.37156062  0.19113307  0.87543625    -0.78800
C633        C  0.38548920  0.07602991  0.81640320     0.83700
C634        C  0.28147879  0.11110367  0.84264820     0.83400
O635        O  0.36059423  0.16852169  0.83042687    -0.77800
C636        C  0.31282515  0.15465018  0.95278435     0.84200
O637        O  0.36903575  0.09898926  0.81343791    -0.77900
C638        C  0.35127607  0.04949822  0.93095043     0.84300
C639        C  0.42502958  0.13126192  0.92829811     0.84600
O640        O  0.42404560  0.11004192  0.90833905    -0.80300
N641        N  0.40097799  0.05905347  0.76279014    -0.02800
C642        C  0.38076347  0.05803098  0.73893660    -0.00200
C643        C  0.35270545  0.05188880  0.75034790    -0.23100
C644        C  0.35549320  0.04813247  0.78171458    -0.23300
C645        C  0.38470551  0.05486457  0.78958426    -0.00300
H646        H  0.33189698  0.05293283  0.73757229     0.13500
H647        H  0.33678336  0.04709810  0.79767058     0.13500
N648        N  0.31285457  0.16463002  0.50887732    -0.02800
C649        C  0.32757176  0.15144467  0.53313859    -0.00200
C650        C  0.34804531  0.13078754  0.52269944    -0.23100
C651        C  0.32946151  0.12470456  0.99572489    -0.23300
C652        C  0.31416351  0.14978671  0.98636755    -0.00300
H653        H  0.36249005  0.11688891  0.53681563     0.13500
H654        H  0.33996300  0.10811991  0.98096177     0.13500
O655        O  0.16695118  0.37781544  0.83111149    -0.77800
C656        C  0.10484198  0.30403699  0.84245640     0.83200
O657        O  0.08990790  0.43179046  0.84307483    -0.78900
O658        O  0.06564436  0.34879301  0.92857215    -0.80400
O659        O  0.17205786  0.35598703  0.93922127    -0.80200
O660        O  0.18993477  0.39326632  0.87448092    -0.78800
Zn661      Zn  0.12487673  0.36742965  0.84314778     1.55700
O662        O  0.13379750  0.32452079  0.94239136    -0.80200
Cd663      Cd  0.15721858  0.38843802  0.90810970     1.59700
Cd664      Cd  0.08979165  0.40947891  0.88768543     1.59600
O665        O  0.15063154  0.42867879  0.93304578    -0.80200
O666        O  0.11948438  0.37549548  0.88688672    -1.90700
Cd667      Cd  0.10516238  0.33776397  0.90609632     1.59900
O668        O  0.10517361  0.44222676  0.91720736    -0.80200
O669        O  0.09835522  0.30433640  0.87164030    -0.78800
C670        C  0.09305181  0.41711715  0.81779398     0.83700
C671        C  0.18996267  0.38746493  0.84529988     0.83400
O672        O  0.11691327  0.32621687  0.82941795    -0.77800
C673        C  0.15570779  0.33832933  0.95489638     0.84200
O674        O  0.09368879  0.38900998  0.81892573    -0.77900
C675        C  0.12870320  0.44692874  0.93303184     0.84300
C676        C  0.04691008  0.37019440  0.92716880     0.84600
O677        O  0.05069898  0.39315390  0.90959714    -0.80300
O678        O  0.07260804  0.37888681  0.58067652    -0.77800
C679        C  0.13457304  0.45173050  0.58912420     0.83200
O680        O  0.17471237  0.34563733  0.59509222    -0.78900
O681        O  0.17553314  0.41309746  0.67545042    -0.80400
O682        O  0.08066849  0.40196954  0.69807080    -0.80200
O683        O  0.04905864  0.37125217  0.62599632    -0.78800
Zn684      Zn  0.11433194  0.38665644  0.59050850     1.55700
O685        O  0.10856524  0.44059572  0.68424520    -0.80200
Cd686      Cd  0.08423087  0.37323491  0.65885322     1.59700
Cd687      Cd  0.15112849  0.35044855  0.63768125     1.59600
O688        O  0.09034479  0.33135775  0.67952656    -0.80200
O689        O  0.12092153  0.38287886  0.63470991    -1.90700
Cd690      Cd  0.13640162  0.42103637  0.65204630     1.59900
O691        O  0.13171129  0.31281132  0.65746918    -0.80200
O692        O  0.14164918  0.45208042  0.61784559    -0.78800
C693        C  0.16341273  0.34921823  0.56805018     0.83700
C694        C  0.04930241  0.37280583  0.59599844     0.83400
O695        O  0.12456832  0.42841824  0.57564197    -0.77800
C696        C  0.09416410  0.42628021  0.70477651     0.84200
O697        O  0.13607224  0.35583826  0.56510057    -0.77900
C698        C  0.10927042  0.31037388  0.67571849     0.84300
C699        C  0.18986343  0.38908796  0.68042167     0.84600
O700        O  0.18260493  0.36408677  0.66873642    -0.80300
N701        N  0.18000050  0.33937301  0.51327537    -0.02800
C702        C  0.18211034  0.35551199  0.54039209    -0.00200
C703        C  0.18091271  0.38563113  0.53337845    -0.23100
C704        C  0.12966111  0.36669096  0.99414678    -0.23300
C705        C  0.15171327  0.34632800  0.98770320    -0.00300
H706        H  0.17915047  0.40377757  0.54999987     0.13500
H707        H  0.11489973  0.37750325  0.97761984     0.13500
N708        N  0.08767233  0.43807161  0.76292906    -0.02800
C709        C  0.10392210  0.43042531  0.73732923    -0.00200
C710        C  0.13123081  0.41943508  0.74608208    -0.23100
C711        C  0.13168766  0.41957051  0.77785504    -0.23300
C712        C  0.10438781  0.42998857  0.78817844    -0.00300
H713        H  0.14805983  0.40986394  0.73104768     0.13500
H714        H  0.14895960  0.40970730  0.79176736     0.13500
O715        O  0.32011626  0.37445053  0.69458280    -0.77800
C716        C  0.37691762  0.29705768  0.68105154     0.83200
O717        O  0.42368109  0.40262866  0.67972831    -0.78900
O718        O  0.42455932  0.33596025  0.59722957    -0.80400
O719        O  0.32428428  0.35180321  0.57847405    -0.80200
O720        O  0.29612721  0.38105306  0.64953457    -0.78800
Zn721      Zn  0.36060493  0.36238266  0.68228328     1.55700
O722        O  0.35513635  0.31358731  0.58631452    -0.80200
Cd723      Cd  0.33130342  0.37915580  0.61713912     1.59700
Cd724      Cd  0.40068058  0.39907483  0.63595099     1.59600
O725        O  0.33800436  0.42047247  0.59627747    -0.80200
O726        O  0.36903044  0.36778553  0.63864386    -1.90700
Cd727      Cd  0.38377624  0.32976161  0.61969364     1.59900
O728        O  0.38212650  0.43701095  0.61390621    -0.80200
O729        O  0.38631519  0.29730878  0.65305119    -0.78800
C730        C  0.41444959  0.39385904  0.70647810     0.83700
C731        C  0.29653113  0.38001190  0.67944390     0.83400
O732        O  0.36581320  0.31989967  0.69416270    -0.77800
C733        C  0.33840391  0.32894231  0.56867484     0.84200
O734        O  0.38858229  0.38310600  0.70996688    -0.77900
C735        C  0.35846607  0.44019041  0.59731910     0.84300
C736        C  0.44041531  0.35931031  0.59376652     0.84600
O737        O  0.43352009  0.38422839  0.60604987    -0.80300
O738        O  0.36833434  0.32135144  0.83020605    -0.77800
C739        C  0.29823222  0.38444587  0.84439948     0.83200
O740        O  0.42509512  0.40566428  0.83923770    -0.78900
O741        O  0.34294340  0.42227617  0.92848958    -0.80400
O742        O  0.35530366  0.31811185  0.93767285    -0.80200
O743        O  0.38885054  0.29992049  0.87207470    -0.78800
Zn744      Zn  0.36235821  0.36438154  0.84022063     1.55700
O745        O  0.32153417  0.35431977  0.94117372    -0.80200
Cd746      Cd  0.38551181  0.33350735  0.90460469     1.59700
Cd747      Cd  0.40381208  0.40235360  0.88458922     1.59600
O748        O  0.42597481  0.34107741  0.92812513    -0.80200
O749        O  0.37171404  0.37096480  0.88360082    -1.90700
Cd750      Cd  0.33412952  0.38296643  0.90533519     1.59900
O751        O  0.43773135  0.38744481  0.91349616    -0.80200
O752        O  0.29910915  0.38825283  0.87391961    -0.78800
C753        C  0.41516366  0.39617801  0.81292412     0.83700
C754        C  0.37947505  0.29885181  0.84401682     0.83400
O755        O  0.32086687  0.37586779  0.82905078    -0.77800
C756        C  0.33514774  0.33199510  0.95273640     0.84200
O757        O  0.38935833  0.38488021  0.81070832    -0.77900
C758        C  0.44325294  0.36370987  0.92879811     0.84300
C759        C  0.36306291  0.44221482  0.92698877     0.84600
O760        O  0.38580411  0.43996782  0.90874686    -0.80300
N761        N  0.43450332  0.40782126  0.75893787    -0.02800
C762        C  0.43434306  0.38922422  0.73376370    -0.00200
C763        C  0.43600588  0.36008040  0.74420153    -0.23100
C764        C  0.43599106  0.36084911  0.77612795    -0.23300
C765        C  0.43448018  0.39047744  0.78517569    -0.00300
H766        H  0.43223032  0.34024310  0.73031606     0.13500
H767        H  0.43235038  0.34166566  0.79100142     0.13500
N768        N  0.33168525  0.31739387  0.51078757    -0.02800
C769        C  0.34635965  0.32899502  0.53573854    -0.00200
C770        C  0.37050866  0.34577364  0.52648434    -0.23100
C771        C  0.36442384  0.34919688  0.99566878    -0.23300
C772        C  0.33988862  0.33304797  0.98635106    -0.00300
H773        H  0.38554091  0.35824774  0.54134477     0.13500
H774        H  0.38035621  0.36058755  0.98088408     0.13500
N775        N  0.48402026  0.04612485  0.75691322    -0.35900
N776        N  0.44992812  0.48970326  0.75862012    -0.56500
N777        N  0.50430468  0.45303613  0.75414612    -0.35900
N778        N  0.04126659  0.50710216  0.76097694    -0.56500
C779        C  0.45646207  0.05810802  0.76093494     0.27700
C780        C  0.00260424  0.06700243  0.75267989     0.27700
C781        C  0.48394530  0.43118312  0.75783265     0.27700
C782        C  0.03313350  0.44042860  0.76545972     0.27700
C783        C  0.42668147  0.01074681  0.75597817     0.36300
C784        C  0.43752852  0.46224173  0.75551564     0.36300
C785        C  0.05066477  0.03797235  0.75504657     0.36300
C786        C  0.06362291  0.48681882  0.76011015     0.36300
C787        C  0.45937246  0.08839709  0.76647760    -0.21200
C788        C  0.98666291  0.09299422  0.74694864    -0.21200
C789        C  0.49892260  0.40417858  0.76140947    -0.21200
C790        C  0.03066384  0.41015806  0.77002278    -0.21200
C791        C  0.40057174  0.99485643  0.75004659    -0.22300
C792        C  0.40736502  0.46453156  0.75090513    -0.22300
C793        C  0.08137652  0.03628264  0.75693790    -0.22300
C794        C  0.09069479  0.50138702  0.75688177    -0.22300
C795        C  0.42877696  0.04259519  0.75917467    -0.17600
C796        C  0.03447268  0.06509451  0.75360965    -0.17600
C797        C  0.06056212  0.45535328  0.76297838    -0.17600
C798        C  0.45231363  0.43462375  0.75767072    -0.17600
H799        H  0.44158034  0.10428989  0.77030689     0.15300
H800        H  0.99570945  0.11483656  0.74196666     0.15300
H801        H  0.48984107  0.38218230  0.76438564     0.15300
H802        H  0.04850063  0.39408217  0.77247447     0.15300
H803        H  0.37845892  0.00255499  0.74533459     0.13600
H804        H  0.39148205  0.44660649  0.74787449     0.13600
H805        H  0.09703760  0.05461637  0.75741475     0.13600
H806        H  0.11266577  0.49148936  0.75583460     0.13600
H807        H  0.48867693  0.02428172  0.75116148     0.26800
H808        H  0.49969131  0.47519725  0.74999712     0.26800
C809        C  0.38392729  0.76783935  0.32856670     0.80900
N810        N  0.37967558  0.74230724  0.34469758    -0.77400
C811        C  0.37445168  0.71656318  0.32925253     0.83300
N812        N  0.37374853  0.71634242  0.29739016    -0.77300
C813        C  0.37827112  0.74199578  0.28118526     0.83400
N814        N  0.38289414  0.76771010  0.29698284    -0.79100
C815        C  0.38210192  0.77032144  0.20035764     0.80900
N816        N  0.37798495  0.74523442  0.18348087    -0.77400
C817        C  0.37320190  0.71899496  0.19793605     0.83300
N818        N  0.37299442  0.71765316  0.22974783    -0.77300
C819        C  0.37755451  0.74278440  0.24685178     0.83400
N820        N  0.38159317  0.76921740  0.23198339    -0.79100
C821        C  0.20176983  0.61890533  0.32515929     0.80900
N822        N  0.22811476  0.61668659  0.34037594    -0.77400
C823        C  0.25392339  0.61421160  0.32420230     0.83300
N824        N  0.25339147  0.61452942  0.29246634    -0.77300
C825        C  0.22706004  0.61648161  0.27678342     0.83400
N826        N  0.20114947  0.61855330  0.29328783    -0.79100
C827        C  0.20258079  0.61994641  0.19345865     0.80900
N828        N  0.20150256  0.61924786  0.22531885    -0.77400
C829        C  0.22717993  0.61648671  0.24214161     0.83300
N830        N  0.25358022  0.61422480  0.22675905    -0.77300
C831        C  0.25436665  0.61416048  0.19505113     0.83400
N832        N  0.22893541  0.61736390  0.17857501    -0.79100
C833        C  0.08962318  0.72874109  0.32622394     0.80900
N834        N  0.08913981  0.73036713  0.29438974    -0.77400
C835        C  0.09319904  0.75708497  0.27967135     0.83300
N836        N  0.09842612  0.78181181  0.29752546    -0.77300
C837        C  0.09929940  0.77995321  0.32951006     0.83400
N838        N  0.09505519  0.75341386  0.34342650    -0.79100
C839        C  0.09928367  0.73267458  0.19635082     0.80900
N840        N  0.10446066  0.75874519  0.18160744    -0.77400
C841        C  0.10388339  0.78483135  0.19731357     0.83300
N842        N  0.09937638  0.78473677  0.22901428    -0.77300
C843        C  0.09514525  0.75830983  0.24459780     0.83400
N844        N  0.09468759  0.73235426  0.22782771    -0.79100
C845        C  0.21812085  0.88134642  0.32179786     0.80900
N846        N  0.24374628  0.87932412  0.33852881    -0.77400
C847        C  0.27032625  0.87638529  0.32395329     0.83300
N848        N  0.27124197  0.87591899  0.29210389    -0.77300
C849        C  0.24568520  0.87830809  0.27503913     0.83400
N850        N  0.21907924  0.88069766  0.29008317    -0.79100
C851        C  0.22227021  0.88618283  0.19225361     0.80900
N852        N  0.24859044  0.88438615  0.17707348    -0.77400
C853        C  0.27410688  0.88048134  0.19332005     0.83300
N854        N  0.27320793  0.87821353  0.22507271    -0.77300
C855        C  0.24676842  0.87984039  0.24050953     0.83400
N856        N  0.22123812  0.88351970  0.22384991    -0.79100
C857        C  0.12816186  0.97851643  0.44216177     0.80900
N858        N  0.13014916  0.97835640  0.47373342    -0.77400
C859        C  0.13009802  0.50622154  0.49041788     0.83300
N860        N  0.12525904  0.53161302  0.47378059    -0.77300
C861        C  0.12315713  0.53056858  0.44198104     0.83400
N862        N  0.12572408  0.50424179  0.42699063    -0.79100
C863        C  0.12676150  0.97984727  0.07296222     0.80900
N864        N  0.12565873  0.98009587  0.04134360    -0.77400
C865        C  0.12901275  0.50466514  0.03155776     0.83300
N866        N  0.12560376  0.53120314  0.04666587    -0.77300
C867        C  0.12459703  0.53225705  0.07850758     0.83400
N868        N  0.12702398  0.50678429  0.09519732    -0.79100
C869        C  0.47093339  0.85939272  0.44858174     0.80900
N870        N  0.49684419  0.86432806  0.43312719    -0.77400
C871        C  0.02351257  0.86208782  0.44972713     0.83300
N872        N  0.02378453  0.85798959  0.48141115    -0.77300
C873        C  0.49753517  0.85574577  0.49615398     0.83400
N874        N  0.47129796  0.85519893  0.48004359    -0.79100
C875        C  0.47591533  0.86182034  0.07898963     0.80900
N876        N  0.47589326  0.86086052  0.04721693    -0.77400
C877        C  0.50201846  0.86168398  0.03096522     0.83300
N878        N  0.02308634  0.86664780  0.04561945    -0.77300
C879        C  0.02136858  0.86825215  0.07758301     0.83400
N880        N  0.50191051  0.86393809  0.09472008    -0.79100
C881        C  0.34573029  0.52112142  0.07627578     0.80900
N882        N  0.34334760  0.52022453  0.04452932    -0.77400
C883        C  0.34636553  0.49381790  0.02884689     0.83300
N884        N  0.35623885  0.96747314  0.04747170    -0.77300
C885        C  0.35857476  0.96803599  0.07940297     0.83400
N886        N  0.35617393  0.99443150  0.09467792    -0.79100
C887        C  0.34732704  0.51762132  0.44661039     0.80900
N888        N  0.35344539  0.49202606  0.43123082    -0.77400
C889        C  0.35420109  0.96613404  0.44418212     0.83300
N890        N  0.35020164  0.96564920  0.47592408    -0.77300
C891        C  0.34528809  0.99155107  0.49221881     0.83400
N892        N  0.34500777  0.51753459  0.47839348    -0.79100
C893        C  0.45219135  0.63136532  0.07628266     0.80900
N894        N  0.45125578  0.63036866  0.04435117    -0.77400
C895        C  0.47710805  0.63227660  0.02761338     0.83300
N896        N  0.00412014  0.64328933  0.04130808    -0.77300
C897        C  0.00586345  0.64292457  0.07290814     0.83400
N898        N  0.47846271  0.63485155  0.09112598    -0.79100
C899        C  0.45189528  0.63139611  0.44512299     0.80900
N900        N  0.47860751  0.63206375  0.43056656    -0.77400
C901        C  0.00329022  0.63703011  0.44859748     0.83300
N902        N  0.00240237  0.63750473  0.48031840    -0.77300
C903        C  0.47598513  0.63672110  0.49382325     0.83400
N904        N  0.45046792  0.63397186  0.47682538    -0.79100
O905        O  0.05497873  0.62704372  0.44452942    -0.77800
C906        C  0.11651849  0.55750527  0.42409057     0.83200
O907        O  0.14054764  0.68250069  0.42743008    -0.78900
O908        O  0.15499573  0.60108744  0.34172305    -0.80400
O909        O  0.04639888  0.61448349  0.33547296    -0.80200
O910        O  0.03124922  0.64553551  0.40308831    -0.78800
Zn911      Zn  0.09750993  0.62131316  0.43014041     1.55700
O912        O  0.08632775  0.58751754  0.32336809    -0.80200
Cd913      Cd  0.06301574  0.64348712  0.36854903     1.59700
Cd914      Cd  0.13308164  0.66146551  0.38358951     1.59600
O915        O  0.06830995  0.68405447  0.34564047    -0.80200
O916        O  0.10197779  0.62969548  0.38628522    -1.90700
Cd917      Cd  0.11392083  0.59314982  0.36255251     1.59900
O918        O  0.11629636  0.69411866  0.35512547    -0.80200
O919        O  0.11773115  0.55742837  0.39415837    -0.78800
C920        C  0.13427124  0.67220128  0.45445362     0.83700
C921        C  0.03150670  0.63696369  0.43144848     0.83400
O922        O  0.10947654  0.58048813  0.43956093    -0.77800
C923        C  0.06199870  0.60035821  0.31568009     0.84200
O924        O  0.12251305  0.64667658  0.45770308    -0.77900
C925        C  0.09138006  0.70033630  0.34249784     0.84300
C926        C  0.17426922  0.62189180  0.34338369     0.84600
O927        O  0.17063088  0.64503739  0.36044171    -0.80300
O928        O  0.11213872  0.58305915  0.07844947    -0.77800
C929        C  0.03464537  0.64332077  0.08872939     0.83200
O930        O  0.14586304  0.68499988  0.08920067    -0.78900
O931        O  0.07651239  0.68966208  0.17479012    -0.80400
O932        O  0.08615842  0.59155694  0.19247647    -0.80200
O933        O  0.11944256  0.56138318  0.12467169    -0.78800
Zn934      Zn  0.09993845  0.62458966  0.08799102     1.55700
O935        O  0.04885053  0.62231604  0.18109493    -0.80200
Cd936      Cd  0.11514188  0.59765376  0.15503864     1.59700
Cd937      Cd  0.13778004  0.66524346  0.13353145     1.59600
O938        O  0.15506118  0.60483163  0.17747050    -0.80200
O939        O  0.10545468  0.63454326  0.13119803    -1.90700
Cd940      Cd  0.06803501  0.65085924  0.14951789     1.59900
O941        O  0.17422305  0.64625361  0.15611042    -0.80200
O942        O  0.03616468  0.65537269  0.11560744    -0.78800
C943        C  0.13728621  0.67534707  0.06257835     0.83700
C944        C  0.11862654  0.56038666  0.09481480     0.83400
O945        O  0.05677508  0.63018797  0.07611405    -0.77800
C946        C  0.06251613  0.60552597  0.20011572     0.84200
O947        O  0.12297509  0.65104541  0.05990706    -0.77900
C948        C  0.17574420  0.62402483  0.17478047     0.84300
C949        C  0.10005249  0.70531846  0.17765244     0.84600
O950        O  0.12409162  0.69915052  0.16316327    -0.80300
N951        N  0.15327404  0.69151767  0.00892277    -0.02800
C952        C  0.13563045  0.69489893  0.03484654    -0.00200
C953        C  0.10648399  0.70039773  0.02597896    -0.23100
C954        C  0.10169837  0.69594987  0.49032952    -0.23300
C955        C  0.13121334  0.69180489  0.48206020    -0.00300
H956        H  0.08709891  0.70028191  0.04105854     0.13500
H957        H  0.08257819  0.69455335  0.47493104     0.13500
N958        N  0.05100645  0.59503648  0.25728237    -0.02800
C959        C  0.05919249  0.61285732  0.23311464    -0.00200
C960        C  0.07136155  0.63919482  0.24371803    -0.23100
C961        C  0.07164592  0.63757020  0.27540034    -0.23300
C962        C  0.05957391  0.61032841  0.28323981    -0.00300
H963        H  0.08101504  0.65682471  0.22976380     0.13500
H964        H  0.08138911  0.65377537  0.29108976     0.13500
N965        N  0.29119721  0.74468192  0.01291399    -0.35900
N966        N  0.23626343  0.70721487  0.00816928    -0.56500
N967        N  0.20044332  0.76147246  0.00806177    -0.35900
N968        N  0.25489093  0.79849596  0.01097372    -0.56500
C969        C  0.30350347  0.71738720  0.00816042     0.27700
C970        C  0.31293542  0.76556649  0.00914880     0.27700
C971        C  0.17807046  0.74111201  0.00714874     0.27700
C972        C  0.18790450  0.78905103  0.00883295     0.27700
C973        C  0.25708856  0.68538525  0.01048713     0.36300
C974        C  0.20896363  0.69400531  0.00886413     0.36300
C975        C  0.28193302  0.81168253  0.01401849     0.36300
C976        C  0.23420946  0.82039460  0.01296199     0.36300
C977        C  0.33362534  0.72089658  0.00199896    -0.21200
C978        C  0.33952596  0.75115273  0.00252083    -0.21200
C979        C  0.15120710  0.75679807  0.00683288    -0.21200
C980        C  0.15743486  0.78658118  0.00805723    -0.21200
C981        C  0.24281738  0.65799205  0.01235764    -0.22300
C982        C  0.21249713  0.66344762  0.01133979    -0.22300
C983        C  0.27859448  0.84202544  0.01778832    -0.22300
C984        C  0.24856086  0.84759283  0.01703742    -0.22300
C985        C  0.28877351  0.68922527  0.00983640    -0.17600
C986        C  0.30985300  0.79723310  0.01196172    -0.17600
C987        C  0.20257836  0.81678367  0.01108831    -0.17600
C988        C  0.18084079  0.70899688  0.00760016    -0.17600
H989        H  0.34972910  0.70345655  0.99745634     0.15300
H990        H  0.36100375  0.76137582  0.99842970     0.15300
H991        H  0.12883525  0.74877329  0.00592494     0.15300
H992        H  0.14119167  0.80443991  0.00856171     0.15300
H993        H  0.25317458  0.63626065  0.01416111     0.13600
H994        H  0.19504426  0.64684314  0.01241136     0.13600
H995        H  0.29600416  0.85851670  0.02045731     0.13600
H996        H  0.23878769  0.86948695  0.01905621     0.13600
H997        H  0.26939674  0.74852025  0.01952519     0.26800
H998        H  0.22291983  0.75705259  0.00856502     0.26800
O999        O  0.35889608  0.66943062  0.19355438    -0.77800
C1000       C  0.28258619  0.61367810  0.17846063     0.83200
O1001       O  0.39314029  0.56908217  0.18225912    -0.78900
O1002       O  0.32403456  0.56687973  0.09348580    -0.80400
O1003       O  0.34010592  0.66799362  0.07862720    -0.80200
O1004       O  0.37081414  0.69295842  0.14956534    -0.78800
Zn1005     Zn  0.34763529  0.62935068  0.18126375     1.55700
O1006       O  0.30163477  0.63738786  0.08515155    -0.80200
Cd1007     Cd  0.36684505  0.65834697  0.11700016     1.59700
Cd1008     Cd  0.38555800  0.58859396  0.13717335     1.59600
O1009       O  0.40688576  0.64998429  0.09520638    -0.80200
O1010       O  0.35442324  0.62070641  0.13814718    -1.90700
Cd1011     Cd  0.31684680  0.60702210  0.11758054     1.59900
O1012       O  0.42198513  0.60506297  0.11210343    -0.80200
O1013       O  0.28331043  0.60448157  0.15029975    -0.78800
C1014       C  0.38332612  0.57909708  0.20829788     0.83700
C1015       C  0.36740968  0.69248117  0.17922715     0.83400
O1016       O  0.30535406  0.62392266  0.19228272    -0.77800
C1017       C  0.31720678  0.65451324  0.06816548     0.84200
O1018       O  0.36887129  0.60322858  0.20976369    -0.77900
C1019       C  0.42537709  0.62845704  0.09531315     0.84300
C1020       C  0.34646150  0.54932179  0.09356263     0.84600
O1021       O  0.36983468  0.55454195  0.10950607    -0.80300
O1022       O  0.30585025  0.62153281  0.32793301    -0.77800
C1023       C  0.36780320  0.68950848  0.34682165     0.83200
O1024       O  0.39246742  0.56486470  0.34241070    -0.78900
O1025       O  0.40400871  0.64649691  0.42983538    -0.80400
O1026       O  0.30091770  0.62671120  0.43988572    -0.80200
O1027       O  0.28209654  0.60285750  0.36931461    -0.78800
Zn1028     Zn  0.34865474  0.62585764  0.34094679     1.55700
O1029       O  0.33476818  0.66272621  0.44505550    -0.80200
Cd1030     Cd  0.31548392  0.60130788  0.40271893     1.59700
Cd1031     Cd  0.38581161  0.58619329  0.38645340     1.59600
O1032       O  0.32322801  0.55962502  0.42362716    -0.80200
O1033       O  0.35335843  0.61683816  0.38453046    -1.90700
Cd1034     Cd  0.36373946  0.65401315  0.40784958     1.59900
O1035       O  0.37225255  0.55326475  0.41674551    -0.80200
O1036       O  0.36875864  0.68947884  0.37667495    -0.78800
C1037       C  0.38515317  0.57503555  0.31558470     0.83700
C1038       C  0.28219031  0.61247170  0.34125651     0.83400
O1039       O  0.36088087  0.66656645  0.33126260    -0.77800
C1040       C  0.31330692  0.64718929  0.45580065     0.84200
O1041       O  0.37252736  0.60020503  0.31276564    -0.77900
C1042       C  0.34746363  0.54535119  0.42854951     0.84300
C1043       C  0.42485833  0.62748122  0.42652356     0.84600
O1044       O  0.42305674  0.60529276  0.40778243    -0.80300
N1045       N  0.40001127  0.56038946  0.26131828    -0.02800
C1046       C  0.38051357  0.56082372  0.23680818    -0.00200
C1047       C  0.35187386  0.55584214  0.24734816    -0.23100
C1048       C  0.35357564  0.55153064  0.27873864    -0.23300
C1049       C  0.38299444  0.55586264  0.28747774    -0.00300
H1050       H  0.33147400  0.55846143  0.23409856     0.13500
H1051       H  0.33446615  0.55137920  0.29419968     0.13500
N1052       N  0.30695750  0.66244598  0.00998819    -0.02800
C1053       C  0.31757826  0.64713436  0.03508945    -0.00200
C1054       C  0.33273926  0.62178972  0.02614806    -0.23100
C1055       C  0.32761573  0.61769490  0.50036497    -0.23300
C1056       C  0.31260827  0.64247371  0.48956130    -0.00300
H1057       H  0.34401002  0.60597340  0.04118484     0.13500
H1058       H  0.33864805  0.60073041  0.48653171     0.13500
O1059       O  0.16554254  0.87580754  0.32545634    -0.77800
C1060       C  0.10680702  0.80625073  0.34867072     0.83200
O1061       O  0.08633210  0.93244551  0.34679036    -0.78900
O1062       O  0.07295053  0.84880440  0.43564753    -0.80400
O1063       O  0.17361760  0.87807107  0.44026171    -0.80200
O1064       O  0.19071730  0.89241912  0.36683271    -0.78800
Zn1065     Zn  0.12342043  0.87018464  0.34218915     1.55700
O1066       O  0.14551020  0.83822184  0.45028957    -0.80200
Cd1067     Cd  0.15832828  0.89667492  0.39994324     1.59700
Cd1068     Cd  0.08839235  0.90786497  0.38964090     1.59600
O1069       O  0.15081079  0.94015109  0.41338984    -0.80200
O1070       O  0.12088275  0.87782744  0.38638051    -1.90700
Cd1071     Cd  0.11348027  0.84134174  0.41228130     1.59900
O1072       O  0.10161100  0.93899814  0.42123618    -0.80200
O1073       O  0.10748112  0.80556901  0.37885370    -0.78800
C1074       C  0.08981096  0.92039377  0.32004712     0.83700
C1075       C  0.18981892  0.88363998  0.33861264     0.83400
O1076       O  0.11266093  0.82959323  0.33350379    -0.77800
C1077       C  0.16576095  0.85705641  0.45832485     0.84200
O1078       O  0.09236835  0.89240614  0.31799977    -0.77900
C1079       C  0.12699273  0.95091650  0.42496030     0.84300
C1080       C  0.05101549  0.86658498  0.43141935     0.84600
O1081       O  0.05159491  0.88756865  0.41100754    -0.80300
O1082       O  0.07226763  0.87678192  0.08153366    -0.77800
C1083       C  0.12865064  0.95189396  0.08992870     0.83200
O1084       O  0.17475895  0.84631824  0.09407176    -0.78900
O1085       O  0.18459372  0.91086471  0.16386690    -0.80400
O1086       O  0.08214391  0.90652947  0.19942567    -0.80200
O1087       O  0.04801211  0.87335372  0.12690664    -0.78800
Zn1088     Zn  0.11341276  0.88609168  0.09108458     1.55700
O1089       O  0.12269668  0.93396617  0.19068073    -0.80200
Cd1090     Cd  0.08438295  0.87571731  0.16037722     1.59700
Cd1091     Cd  0.15085981  0.84932714  0.13738198     1.59600
O1092       O  0.09065293  0.83430939  0.18273229    -0.80200
O1093       O  0.12149157  0.88241479  0.13507467    -1.90700
Cd1094     Cd  0.14123218  0.91920179  0.15010261     1.59900
O1095       O  0.13021954  0.81306754  0.15937267    -0.80200
O1096       O  0.13787710  0.95247256  0.11797495    -0.78800
C1097       C  0.16421502  0.85220957  0.06702893     0.83700
C1098       C  0.04846640  0.87297548  0.09670309     0.83400
O1099       O  0.11974741  0.92809098  0.07676720    -0.77800
C1100       C  0.10137469  0.92606240  0.20828165     0.84200
O1101       O  0.13700705  0.85903714  0.06373624    -0.77900
C1102       C  0.10871516  0.81245791  0.17917685     0.84300
C1103       C  0.19501791  0.88634726  0.17416805     0.84600
O1104       O  0.18287106  0.86134937  0.16871871    -0.80300
N1105       N  0.18462538  0.84359365  0.01320533    -0.02800
C1106       C  0.18329197  0.86013196  0.03999661    -0.00200
C1107       C  0.18187659  0.89007890  0.03213732    -0.23100
C1108       C  0.17247445  0.89011754  0.50399369    -0.23300
C1109       C  0.17442527  0.86172872  0.49164704    -0.00300
H1110       H  0.17737843  0.90840215  0.04794477     0.13500
H1111       H  0.16717765  0.91046457  0.49155544     0.13500
N1112       N  0.08587620  0.93916965  0.26504530    -0.02800
C1113       C  0.10595962  0.93344198  0.24191861    -0.00200
C1114       C  0.13387975  0.92947410  0.25480119    -0.23100
C1115       C  0.13088209  0.93227075  0.28637627    -0.23300
C1116       C  0.10102560  0.93697455  0.29262235    -0.00300
H1117       H  0.15405112  0.92302402  0.24267191     0.13500
H1118       H  0.14801792  0.92701148  0.30326731     0.13500
O1119       O  0.32547585  0.87260603  0.19280199    -0.77800
C1120       C  0.38381756  0.79850027  0.18394490     0.83200
O1121       O  0.42939232  0.90269499  0.18177739    -0.78900
O1122       O  0.43516885  0.83855558  0.10381823    -0.80400
O1123       O  0.33275016  0.84718933  0.07870037    -0.80200
O1124       O  0.30317005  0.87912029  0.14675555    -0.78800
Zn1125     Zn  0.36732785  0.86381279  0.18357332     1.55700
O1126       O  0.36962978  0.81442940  0.08528810    -0.80200
Cd1127     Cd  0.33928897  0.87738601  0.11566419     1.59700
Cd1128     Cd  0.40640559  0.90098413  0.13757684     1.59600
O1129       O  0.34555040  0.91868781  0.09386482    -0.80200
O1130       O  0.37626326  0.86836304  0.13974173    -1.90700
Cd1131     Cd  0.39334678  0.83081203  0.12267281     1.59900
O1132       O  0.38575141  0.93887085  0.11687246    -0.80200
O1133       O  0.39318186  0.79834255  0.15593508    -0.78800
C1134       C  0.41875405  0.89625863  0.20871162     0.83700
C1135       C  0.30236325  0.87741188  0.17660116     0.83400
O1136       O  0.37396535  0.82184578  0.19718399    -0.77800
C1137       C  0.34909288  0.82588827  0.06872948     0.84200
O1138       O  0.39169755  0.88885389  0.21187396    -0.77900
C1139       C  0.36371198  0.94033532  0.09766083     0.84300
C1140       C  0.44819697  0.86287543  0.09676632     0.84600
O1141       O  0.43889136  0.88822215  0.10603502    -0.80300
O1142       O  0.37173346  0.81806227  0.33147224    -0.77800
C1143       C  0.29797660  0.87382323  0.34251764     0.83200
O1144       O  0.42538550  0.90325470  0.34200252    -0.78900
O1145       O  0.33873384  0.91873550  0.42610752    -0.80400
O1146       O  0.35552552  0.81110830  0.43516104    -0.80200
O1147       O  0.39314944  0.79699646  0.37297869    -0.78800
Zn1148     Zn  0.36383371  0.86034199  0.34088213     1.55700
O1149       O  0.32563153  0.84956031  0.44439011    -0.80200
Cd1150     Cd  0.38658985  0.82965670  0.40539501     1.59700
Cd1151     Cd  0.40299582  0.89866909  0.38653088     1.59600
O1152       O  0.42565380  0.83787787  0.43058641    -0.80200
O1153       O  0.37149518  0.86683863  0.38455923    -1.90700
Cd1154     Cd  0.33273764  0.87705176  0.40537496     1.59900
O1155       O  0.43703515  0.88422947  0.41572305    -0.80200
O1156       O  0.29746138  0.87682695  0.37231965    -0.78800
C1157       C  0.41655585  0.89370311  0.31531604     0.83700
C1158       C  0.38363566  0.79591908  0.34505916     0.83400
O1159       O  0.32203007  0.86852056  0.32796396    -0.77800
C1160       C  0.33865650  0.82571080  0.45331921     0.84200
O1161       O  0.39117363  0.88161048  0.31221777    -0.77900
C1162       C  0.44277412  0.86058030  0.43109700     0.84300
C1163       C  0.35919884  0.93853913  0.42589568     0.84600
O1164       O  0.38331401  0.93563796  0.40987716    -0.80300
N1165       N  0.43725032  0.90761373  0.26249082    -0.02800
C1166       C  0.43765511  0.89009575  0.23648015    -0.00200
C1167       C  0.43909813  0.86058237  0.24561694    -0.23100
C1168       C  0.43876066  0.86007101  0.27759475    -0.23300
C1169       C  0.43680549  0.88929660  0.28797163    -0.00300
H1170       H  0.43564092  0.84133132  0.23077490     0.13500
H1171       H  0.43500592  0.84027820  0.29153159     0.13500
N1172       N  0.33661121  0.81558641  0.01088491    -0.02800
C1173       C  0.35437077  0.82467039  0.03504754    -0.00200
C1174       C  0.37872451  0.84040184  0.02444502    -0.23100
C1175       C  0.37112434  0.83906867  0.49618492    -0.23300
C1176       C  0.34612670  0.82388747  0.48645214    -0.00300
H1177       H  0.39567614  0.85121297  0.03846213     0.13500
H1178       H  0.38690262  0.85095722  0.48168677     0.13500
N1179       N  0.48294446  0.54727802  0.25656839    -0.35900
N1180       N  0.45016891  0.99001610  0.26119426    -0.56500
N1181       N  0.50567483  0.95506669  0.25998481    -0.35900
N1182       N  0.03886840  0.00779915  0.25856745    -0.56500
C1183       C  0.45547833  0.55931590  0.26093494     0.27700
C1184       C  0.00227685  0.57060947  0.25653452     0.27700
C1185       C  0.48589371  0.93251126  0.26240082     0.27700
C1186       C  0.03134917  0.94094354  0.26052192     0.27700
C1187       C  0.42551176  0.51227407  0.25526680     0.36300
C1188       C  0.43838149  0.96216608  0.26128930     0.36300
C1189       C  0.04946322  0.54012780  0.25462476     0.36300
C1190       C  0.06137137  0.98785295  0.26179537     0.36300
C1191       C  0.45853179  0.58940110  0.26748365    -0.21200
C1192       C  0.98731078  0.59749613  0.26036320    -0.21200
C1193       C  0.50158375  0.90578414  0.26463003    -0.21200
C1194       C  0.02898853  0.91033752  0.25955294    -0.21200
C1195       C  0.39938719  0.49668938  0.24862520    -0.22300
C1196       C  0.40785693  0.96355460  0.26015381    -0.22300
C1197       C  0.08010585  0.53752635  0.25314961    -0.22300
C1198       C  0.08813683  0.00297658  0.26509589    -0.22300
C1199       C  0.42779080  0.54401508  0.25829126    -0.17600
C1200       C  0.03399930  0.56769091  0.25570750    -0.17600
C1201       C  0.05869002  0.95615376  0.26163652    -0.17600
C1202       C  0.45414899  0.93501835  0.26249914    -0.17600
H1203       H  0.44080766  0.60526950  0.27174290     0.15300
H1204       H  0.99707206  0.61940853  0.26296039     0.15300
H1205       H  0.49299533  0.88346132  0.26662173     0.15300
H1206       H  0.04693262  0.89419336  0.25917267     0.15300
H1207       H  0.37759968  0.50489383  0.24293353     0.13600
H1208       H  0.39227594  0.94514173  0.25974155     0.13600
H1209       H  0.09624030  0.55540665  0.25189500     0.13600
H1210       H  0.11018733  0.99361065  0.26779993     0.13600
H1211       H  0.48733361  0.52559021  0.24983824     0.26800
H1212       H  0.50050310  0.97726672  0.25735203     0.26800
C1213       C  0.38124258  0.77151584  0.82678490     0.80900
N1214       N  0.37814781  0.74565587  0.84287467    -0.77400
C1215       C  0.37537746  0.71944959  0.82731746     0.83300
N1216       N  0.37612220  0.71913466  0.79560813    -0.77300
C1217       C  0.37955326  0.74491711  0.77951180     0.83400
N1218       N  0.38158490  0.77111539  0.79516723    -0.79100
C1219       C  0.38351214  0.77160544  0.69849778     0.80900
N1220       N  0.38122154  0.74589659  0.68211280    -0.77400
C1221       C  0.37836686  0.71963002  0.69716369     0.83300
N1222       N  0.37795894  0.71910014  0.72893725    -0.77300
C1223       C  0.38050212  0.74488626  0.74539544     0.83400
N1224       N  0.38281995  0.77115875  0.73004939    -0.79100
C1225       C  0.20099053  0.61522623  0.82659857     0.80900
N1226       N  0.22752923  0.61406831  0.84159338    -0.77400
C1227       C  0.25330481  0.61391542  0.82524615     0.83300
N1228       N  0.25249356  0.61551532  0.79363610    -0.77300
C1229       C  0.22606818  0.61654828  0.77809436     0.83400
N1230       N  0.20011022  0.61641126  0.79470711    -0.79100
C1231       C  0.20317852  0.62149550  0.69414142     0.80900
N1232       N  0.20125466  0.61986687  0.72598118    -0.77400
C1233       C  0.22663070  0.61813281  0.74350746     0.83300
N1234       N  0.25350887  0.61762135  0.72889841    -0.77300
C1235       C  0.25520239  0.61831378  0.69731652     0.83400
N1236       N  0.23008754  0.62053341  0.68007871    -0.79100
C1237       C  0.09658640  0.72862020  0.82868334     0.80900
N1238       N  0.09459262  0.72979574  0.79689305    -0.77400
C1239       C  0.09867090  0.75610695  0.78145639     0.83300
N1240       N  0.10493656  0.78114725  0.79853080    -0.77300
C1241       C  0.10706379  0.78003576  0.83048435     0.83400
N1242       N  0.10314669  0.75364473  0.84517675    -0.79100
C1243       C  0.09968996  0.73129238  0.69761937     0.80900
N1244       N  0.10381066  0.75752350  0.68276208    -0.77400
C1245       C  0.10416750  0.78352511  0.69869570     0.83300
N1246       N  0.10169903  0.78328163  0.73055420    -0.77300
C1247       C  0.09854670  0.75687174  0.74628481     0.83400
N1248       N  0.09718913  0.73087203  0.72946288    -0.79100
C1249       C  0.22017641  0.89506281  0.82448545     0.80900
N1250       N  0.24581286  0.89341741  0.84117773    -0.77400
C1251       C  0.27209639  0.88893738  0.82652139     0.83300
N1252       N  0.27260237  0.88648900  0.79469270    -0.77300
C1253       C  0.24683803  0.88854785  0.77789627     0.83400
N1254       N  0.22067969  0.89231645  0.79305935    -0.79100
C1255       C  0.21993158  0.88654032  0.69615692     0.80900
N1256       N  0.24554422  0.88315387  0.68021874    -0.77400
C1257       C  0.27166316  0.88125694  0.69557924     0.83300
N1258       N  0.27228310  0.88274251  0.72732909    -0.77300
C1259       C  0.24654558  0.88626662  0.74357533     0.83400
N1260       N  0.22021518  0.88793417  0.72783005    -0.79100
C1261       C  0.12608075  0.98013622  0.94448252     0.80900
N1262       N  0.12673150  0.98046313  0.97603596    -0.77400
C1263       C  0.12914511  0.50326913  0.99692803     0.83300
N1264       N  0.12463451  0.52857277  0.98002181    -0.77300
C1265       C  0.12300598  0.52753579  0.94830008     0.83400
N1266       N  0.12549325  0.50092147  0.93354376    -0.79100
C1267       C  0.13179255  0.97652195  0.57099535     0.80900
N1268       N  0.13112554  0.97723738  0.53937125    -0.77400
C1269       C  0.13138087  0.50663766  0.52499808     0.83300
N1270       N  0.12759263  0.53237545  0.54159940    -0.77300
C1271       C  0.12799134  0.53191099  0.57353884     0.83400
N1272       N  0.13205598  0.50567471  0.58853344    -0.79100
C1273       C  0.47300797  0.86264405  0.94866179     0.80900
N1274       N  0.49837241  0.86757626  0.93235980    -0.77400
C1275       C  0.02577704  0.86735938  0.94536860     0.83300
N1276       N  0.02557115  0.86527931  0.97725744    -0.77300
C1277       C  0.50108634  0.86213660  0.99581211     0.83400
N1278       N  0.47429004  0.86024350  0.98046812    -0.79100
C1279       C  0.46888948  0.85581444  0.57762408     0.80900
N1280       N  0.47029228  0.85307028  0.54604495    -0.77400
C1281       C  0.49692043  0.85525422  0.53100064     0.83300
N1282       N  0.02238768  0.85878340  0.54944983    -0.77300
C1283       C  0.02129272  0.86083852  0.58138668     0.83400
N1284       N  0.49392022  0.86112096  0.59438784    -0.79100
C1285       C  0.34853970  0.51983441  0.57761128     0.80900
N1286       N  0.34607874  0.51890167  0.54574755    -0.77400
C1287       C  0.34781448  0.49225719  0.53005925     0.83300
N1288       N  0.34951160  0.96569003  0.54385640    -0.77300
C1289       C  0.35206635  0.96609121  0.57573298     0.83400
N1290       N  0.34908476  0.99214688  0.59123617    -0.79100
C1291       C  0.34676931  0.52054929  0.94612641     0.80900
N1292       N  0.35485248  0.49552922  0.93062943    -0.77400
C1293       C  0.36207571  0.96981810  0.94724222     0.83300
N1294       N  0.35831212  0.96842241  0.97898502    -0.77300
C1295       C  0.35241208  0.99374618  0.99585040     0.83400
N1296       N  0.34332181  0.51980152  0.97776211    -0.79100
C1297       C  0.45080390  0.63514364  0.57687750     0.80900
N1298       N  0.44972749  0.63561865  0.54498955    -0.77400
C1299       C  0.47550445  0.63804366  0.52830317     0.83300
N1300       N  0.00227283  0.63789848  0.54587043    -0.77300
C1301       C  0.00324191  0.63752147  0.57758301     0.83400
N1302       N  0.47715774  0.63747281  0.59181533    -0.79100
C1303       C  0.45362492  0.62858519  0.94403853     0.80900
N1304       N  0.48037910  0.62917081  0.92953813    -0.77400
C1305       C  0.00313019  0.63837595  0.94518585     0.83300
N1306       N  0.00259335  0.64049484  0.97667851    -0.77300
C1307       C  0.47767966  0.63088265  0.99303083     0.83400
N1308       N  0.45214917  0.62967709  0.97584624    -0.79100
O1309       O  0.05349649  0.62487615  0.94250813    -0.77800
C1310       C  0.11692561  0.55486676  0.93020990     0.83200
O1311       O  0.14607778  0.67849138  0.93090099    -0.78900
O1312       O  0.15470449  0.59694932  0.84462691    -0.80400
O1313       O  0.04917758  0.61225151  0.83698994    -0.80200
O1314       O  0.03284864  0.64691206  0.90103435    -0.78800
Zn1315     Zn  0.09667140  0.61940670  0.93261950     1.55700
O1316       O  0.08583927  0.57943322  0.83049884    -0.80200
Cd1317     Cd  0.06599910  0.64270245  0.86851019     1.59700
Cd1318     Cd  0.13527828  0.65860550  0.88725011     1.59600
O1319       O  0.07389852  0.68303394  0.84494540    -0.80200
O1320       O  0.10314379  0.62739992  0.88912136    -1.90700
Cd1321     Cd  0.11453572  0.58929077  0.86760054     1.59900
O1322       O  0.12019138  0.69364605  0.86057212    -0.80200
O1323       O  0.11894527  0.55457290  0.90037461    -0.78800
C1324       C  0.13445738  0.67160887  0.95710528     0.83700
C1325       C  0.03137837  0.63684562  0.92876118     0.83400
O1326       O  0.10944984  0.57826691  0.94508693    -0.77800
C1327       C  0.06407911  0.59463805  0.81982048     0.84200
O1328       O  0.11727452  0.64917599  0.95959400    -0.77900
C1329       C  0.09671813  0.70003387  0.84529725     0.84300
C1330       C  0.17389372  0.61791886  0.84537912     0.84600
O1331       O  0.17087914  0.64114621  0.86239762    -0.80300
O1332       O  0.11191092  0.58173641  0.57709880    -0.77800
C1333       C  0.03178051  0.63760380  0.59392602     0.83200
O1334       O  0.14401374  0.68251955  0.58709271    -0.78900
O1335       O  0.07692756  0.68731681  0.67728672    -0.80400
O1336       O  0.08968072  0.58551768  0.69231012    -0.80200
O1337       O  0.12335977  0.55907220  0.62171403    -0.78800
Zn1338     Zn  0.09704098  0.62152886  0.59016282     1.55700
O1339       O  0.05351160  0.61942113  0.68756918    -0.80200
Cd1340     Cd  0.11736629  0.59437171  0.65416671     1.59700
Cd1341     Cd  0.13695489  0.66385151  0.63283687     1.59600
O1342       O  0.15699041  0.60357856  0.67664762    -0.80200
O1343       O  0.10516589  0.63193253  0.63263626    -1.90700
Cd1344     Cd  0.06818906  0.64749818  0.65305584     1.59900
O1345       O  0.17409156  0.64623760  0.65595805    -0.80200
O1346       O  0.03376761  0.64976312  0.62081275    -0.78800
C1347       C  0.13133489  0.67336655  0.56205776     0.83700
C1348       C  0.12103714  0.55899488  0.59184282     0.83400
O1349       O  0.05373840  0.62476903  0.58087637    -0.77800
C1350       C  0.06779525  0.60027138  0.70347292     0.84200
O1351       O  0.11497190  0.65039261  0.56210798    -0.77900
C1352       C  0.17656524  0.62400682  0.67458017     0.84300
C1353       C  0.10005184  0.70383837  0.67858570     0.84600
O1354       O  0.12334533  0.69830570  0.66245957    -0.80300
N1355       N  0.14853279  0.68970642  0.50843306    -0.02800
C1356       C  0.12900927  0.69111065  0.53297468    -0.00200
C1357       C  0.10026820  0.69509002  0.52199607    -0.23100
C1358       C  0.10542532  0.69877899  0.99435879    -0.23300
C1359       C  0.13396352  0.69250963  0.98404098    -0.00300
H1360       H  0.07990266  0.69337280  0.53544294     0.13500
H1361       H  0.08511755  0.69747988  0.98073039     0.13500
N1362       N  0.05657692  0.58882192  0.76089556    -0.02800
C1363       C  0.06771813  0.60552021  0.73709728    -0.00200
C1364       C  0.08285157  0.63008984  0.74819112    -0.23100
C1365       C  0.08177806  0.62863142  0.77980134    -0.23300
C1366       C  0.06599890  0.60324343  0.78708565    -0.00300
H1367       H  0.09435880  0.64683241  0.73455180     0.13500
H1368       H  0.09235322  0.64390652  0.79594647     0.13500
N1369       N  0.28555702  0.74203481  0.51335420    -0.35900
N1370       N  0.23143598  0.70470339  0.51087562    -0.56500
N1371       N  0.19505753  0.75941781  0.51014979    -0.35900
N1372       N  0.24883690  0.79616131  0.51055271    -0.56500
C1373       C  0.29799027  0.71473559  0.50860093     0.27700
C1374       C  0.30678056  0.76302250  0.50777051     0.27700
C1375       C  0.17293689  0.73892048  0.50961106     0.27700
C1376       C  0.18223202  0.78690675  0.51042115     0.27700
C1377       C  0.25214798  0.68282851  0.51422264     0.36300
C1378       C  0.20405097  0.69179473  0.51237224     0.36300
C1379       C  0.27590943  0.80923736  0.51312848     0.36300
C1380       C  0.22835127  0.81820631  0.51281383     0.36300
C1381       C  0.32760750  0.71843671  0.50039740    -0.21200
C1382       C  0.33310226  0.74875697  0.49977200    -0.21200
C1383       C  0.14585464  0.75429569  0.50935420    -0.21200
C1384       C  0.15177484  0.78417761  0.50994988    -0.21200
C1385       C  0.23769732  0.65570322  0.51780371    -0.22300
C1386       C  0.20738593  0.66135602  0.51649878    -0.22300
C1387       C  0.27276707  0.83965413  0.51668914    -0.22300
C1388       C  0.24279023  0.84538063  0.51639058    -0.22300
C1389       C  0.28383812  0.68648049  0.51238774    -0.17600
C1390       C  0.30367806  0.79463810  0.51078756    -0.17600
C1391       C  0.19679150  0.81472086  0.51188361    -0.17600
C1392       C  0.17604475  0.70691596  0.51000666    -0.17600
H1393       H  0.34369147  0.70109126  0.49544286     0.15300
H1394       H  0.35419771  0.75911337  0.49416769     0.15300
H1395       H  0.12355626  0.74588734  0.50924651     0.15300
H1396       H  0.13539252  0.80191209  0.51026574     0.15300
H1397       H  0.24792367  0.63401611  0.52067978     0.13600
H1398       H  0.18980287  0.64497216  0.51851973     0.13600
H1399       H  0.29026595  0.85611454  0.51884902     0.13600
H1400       H  0.23306217  0.86731548  0.51840540     0.13600
H1401       H  0.26423529  0.74600375  0.52153555     0.26800
H1402       H  0.21752236  0.75488813  0.51055219     0.26800
O1403       O  0.36536885  0.66938611  0.69466957    -0.77800
C1404       C  0.28384986  0.61670621  0.68156401     0.83200
O1405       O  0.39684839  0.57021476  0.68316558    -0.78900
O1406       O  0.32572457  0.56447526  0.59727146    -0.80400
O1407       O  0.33469780  0.66840354  0.58188932    -0.80200
O1408       O  0.37157419  0.69314528  0.64949388    -0.78800
Zn1409     Zn  0.34932352  0.63024375  0.68309780     1.55700
O1410       O  0.29910491  0.63490458  0.59016267    -0.80200
Cd1411     Cd  0.36483415  0.65840103  0.61764467     1.59700
Cd1412     Cd  0.38737943  0.58951398  0.63830871     1.59600
O1413       O  0.40368161  0.65056296  0.59362093    -0.80200
O1414       O  0.35502599  0.62059017  0.64005949    -1.90700
Cd1415     Cd  0.31755488  0.60493370  0.62140853     1.59900
O1416       O  0.42287367  0.60865522  0.61422943    -0.80200
O1417       O  0.28538450  0.60301808  0.65551062    -0.78800
C1418       C  0.38477873  0.57805013  0.70897952     0.83700
C1419       C  0.37191706  0.69260197  0.67935561     0.83400
O1420       O  0.30616343  0.62957864  0.69389684    -0.77800
C1421       C  0.31240601  0.65327362  0.57244398     0.84200
O1422       O  0.36792641  0.60069349  0.71050908    -0.77900
C1423       C  0.42415207  0.63102797  0.59568186     0.84300
C1424       C  0.34912984  0.54821692  0.59526846     0.84600
O1425       O  0.37314116  0.55473187  0.60972753    -0.80300
O1426       O  0.30474935  0.62427874  0.82838036    -0.77800
C1427       C  0.36963226  0.69181705  0.84437356     0.83200
O1428       O  0.39487477  0.56672973  0.84131440    -0.78900
O1429       O  0.40753975  0.64736783  0.92682744    -0.80400
O1430       O  0.30105321  0.63560310  0.93507518    -0.80200
O1431       O  0.28279510  0.60323339  0.86960318    -0.78800
Zn1432     Zn  0.34834473  0.62786814  0.83922258     1.55700
O1433       O  0.33961686  0.66610365  0.94197150    -0.80200
Cd1434     Cd  0.31639544  0.60528571  0.90261070     1.59700
Cd1435     Cd  0.38586362  0.58739867  0.88470787     1.59600
O1436       O  0.32364926  0.56518917  0.92720303    -0.80200
O1437       O  0.35435720  0.61912611  0.88259132    -1.90700
Cd1438     Cd  0.36735213  0.65602674  0.90487663     1.59900
O1439       O  0.37044875  0.55431400  0.91336169    -0.80200
O1440       O  0.37183047  0.69140328  0.87407439    -0.78800
C1441       C  0.38511248  0.57498401  0.81470448     0.83700
C1442       C  0.28183974  0.61358611  0.84187817     0.83400
O1443       O  0.36193425  0.66896060  0.82875224    -0.77800
C1444       C  0.31642262  0.65296440  0.95206190     0.84200
O1445       O  0.36947057  0.59854726  0.81176731    -0.77900
C1446       C  0.34677013  0.54853651  0.92847855     0.84300
C1447       C  0.42662390  0.62639686  0.92515640     0.84600
O1448       O  0.42315857  0.60359127  0.90767499    -0.80300
N1449       N  0.40249460  0.55884568  0.76159998    -0.02800
C1450       C  0.38319284  0.55846300  0.73675823    -0.00200
C1451       C  0.35464047  0.55215896  0.74684806    -0.23100
C1452       C  0.35594525  0.54840811  0.77826055    -0.23300
C1453       C  0.38488961  0.55456888  0.78743299    -0.00300
H1454       H  0.33434184  0.55371355  0.73324184     0.13500
H1455       H  0.33656079  0.54757014  0.79331893     0.13500
N1456       N  0.30233700  0.65975624  0.51361373    -0.02800
C1457       C  0.31244446  0.64505396  0.53951570    -0.00200
C1458       C  0.32754777  0.61935135  0.53181721    -0.23100
C1459       C  0.33207453  0.62111682  0.99454860    -0.23300
C1460       C  0.31659482  0.64611012  0.98517235    -0.00300
H1461       H  0.33848919  0.60399471  0.54761760     0.13500
H1462       H  0.34292020  0.60480441  0.97974581     0.13500
O1463       O  0.16966535  0.88220831  0.82828132    -0.77800
C1464       C  0.11373800  0.80743189  0.84881209     0.83200
O1465       O  0.08957115  0.93497255  0.84309469    -0.78900
O1466       O  0.07528756  0.85306242  0.93287268    -0.80400
O1467       O  0.18273971  0.87518897  0.93620149    -0.80200
O1468       O  0.19171852  0.90499748  0.86852399    -0.78800
Zn1469     Zn  0.12794314  0.87280043  0.84189259     1.55700
O1470       O  0.14786404  0.84270018  0.95044052    -0.80200
Cd1471     Cd  0.16134818  0.89958464  0.90257219     1.59700
Cd1472     Cd  0.09172741  0.91099810  0.88595776     1.59600
O1473       O  0.15194640  0.93931570  0.92393505    -0.80200
O1474       O  0.12452113  0.88107381  0.88574765    -1.90700
Cd1475     Cd  0.11673746  0.84476747  0.91156036     1.59900
O1476       O  0.10293716  0.94358131  0.91596620    -0.80200
O1477       O  0.11304714  0.80787011  0.87899349    -0.78800
C1478       C  0.09406954  0.92300567  0.81656481     0.83700
C1479       C  0.19208164  0.89480455  0.84092290     0.83400
O1480       O  0.11953235  0.83063833  0.83309893    -0.77800
C1481       C  0.17174985  0.85757569  0.95626752     0.84200
O1482       O  0.09872546  0.89517218  0.81476383    -0.77900
C1483       C  0.12720211  0.95256023  0.92771195     0.84300
C1484       C  0.05359045  0.87093309  0.92756882     0.84600
O1485       O  0.05471194  0.89145303  0.90673907    -0.80300
O1486       O  0.07125785  0.87386284  0.58386405    -0.77800
C1487       C  0.13167516  0.94838335  0.58781492     0.83200
O1488       O  0.17410064  0.84530703  0.59697180    -0.78900
O1489       O  0.18166236  0.91019442  0.66835582    -0.80400
O1490       O  0.08309345  0.90638857  0.69937158    -0.80200
O1491       O  0.04819012  0.86878939  0.62976667    -0.78800
Zn1492     Zn  0.11255024  0.88335375  0.59223530     1.55700
O1493       O  0.11901075  0.93829719  0.68594117    -0.80200
Cd1494     Cd  0.08452550  0.87406223  0.66222306     1.59700
Cd1495     Cd  0.15027235  0.84838620  0.63997188     1.59600
O1496       O  0.09142533  0.83346591  0.68571601    -0.80200
O1497       O  0.12069175  0.88108234  0.63627175    -1.90700
Cd1498     Cd  0.14022147  0.91823918  0.64993061     1.59900
O1499       O  0.12933373  0.81170974  0.66014647    -0.80200
O1500       O  0.14119194  0.94887004  0.61566229    -0.78800
C1501       C  0.16177278  0.84804508  0.57027227     0.83700
C1502       C  0.04817455  0.86822973  0.59961737     0.83400
O1503       O  0.12075665  0.92497144  0.57531946    -0.77800
C1504       C  0.10022081  0.92861300  0.70548779     0.84200
O1505       O  0.13385723  0.85139613  0.56838904    -0.77900
C1506       C  0.10869225  0.81123832  0.68084276     0.84300
C1507       C  0.19240926  0.88591423  0.67872917     0.84600
O1508       O  0.18130665  0.86060196  0.67242432    -0.80300
N1509       N  0.17916457  0.84164019  0.51507277    -0.02800
C1510       C  0.17843354  0.85756318  0.54230008    -0.00200
C1511       C  0.17548253  0.88754495  0.53554615    -0.23100
C1512       C  0.18035403  0.89192434  0.00036178    -0.23300
C1513       C  0.18153628  0.86317275  0.98905283    -0.00300
H1514       H  0.17160674  0.90530735  0.55215477     0.13500
H1515       H  0.17591328  0.91198534  0.98708266     0.13500
N1516       N  0.08732841  0.94246779  0.76194977    -0.02800
C1517       C  0.10659935  0.93714231  0.73818778    -0.00200
C1518       C  0.13509253  0.93377429  0.74965773    -0.23100
C1519       C  0.13326207  0.93651973  0.78132498    -0.23300
C1520       C  0.10351497  0.94048171  0.78890339    -0.00300
H1521       H  0.15477425  0.92743664  0.73661689     0.13500
H1522       H  0.15111770  0.93123853  0.79739335     0.13500
O1523       O  0.32251841  0.87195117  0.69290191    -0.77800
C1524       C  0.38235710  0.79955692  0.68180858     0.83200
O1525       O  0.42527882  0.90344905  0.67839252    -0.78900
O1526       O  0.42395250  0.83526265  0.59628075    -0.80400
O1527       O  0.32404101  0.84849592  0.57789405    -0.80200
O1528       O  0.29828982  0.87939524  0.64801110    -0.78800
Zn1529     Zn  0.36405308  0.86444724  0.68217090     1.55700
O1530       O  0.35419399  0.81057050  0.58809502    -0.80200
Cd1531     Cd  0.33240887  0.87752604  0.61529363     1.59700
Cd1532     Cd  0.40140994  0.89969146  0.63451774     1.59600
O1533       O  0.33795730  0.91832334  0.59327196    -0.80200
O1534       O  0.37025168  0.86811516  0.63770938    -1.90700
Cd1535     Cd  0.38384039  0.82972784  0.61903637     1.59900
O1536       O  0.38157961  0.93651522  0.61069945    -0.80200
O1537       O  0.38834925  0.79901465  0.65290533    -0.78800
C1538       C  0.41479960  0.89864351  0.70574772     0.83700
C1539       C  0.29889638  0.87733155  0.67779401     0.83400
O1540       O  0.37346376  0.82291479  0.69586896    -0.77800
C1541       C  0.33743497  0.82472749  0.56945158     0.84200
O1542       O  0.38745674  0.89244713  0.70912693    -0.77900
C1543       C  0.35777103  0.93868636  0.59399432     0.84300
C1544       C  0.44043113  0.85818835  0.59351626     0.84600
O1545       O  0.43403012  0.88331459  0.60563064    -0.80300
O1546       O  0.36999911  0.82255370  0.82997533    -0.77800
C1547       C  0.29946108  0.88425511  0.84501620     0.83200
O1548       O  0.42706496  0.90410877  0.84022594    -0.78900
O1549       O  0.34510233  0.92330086  0.92919641    -0.80400
O1550       O  0.35529587  0.81548352  0.93330516    -0.80200
O1551       O  0.39154383  0.80080651  0.87109408    -0.78800
Zn1552     Zn  0.36376805  0.86542548  0.84122966     1.55700
O1553       O  0.32766399  0.85485678  0.94521937    -0.80200
Cd1554     Cd  0.38763059  0.83341994  0.90454195     1.59700
Cd1555     Cd  0.40585772  0.90196076  0.88581105     1.59600
O1556       O  0.42736049  0.84062848  0.93035069    -0.80200
O1557       O  0.37316354  0.87135184  0.88471627    -1.90700
Cd1558     Cd  0.33561661  0.88326787  0.90697670     1.59900
O1559       O  0.43920014  0.88682745  0.91536988    -0.80200
O1560       O  0.29971803  0.88772968  0.87478182    -0.78800
C1561       C  0.41544761  0.89711394  0.81380834     0.83700
C1562       C  0.38132025  0.79988477  0.84337707     0.83400
O1563       O  0.32247812  0.87602332  0.83028954    -0.77800
C1564       C  0.34019476  0.83032809  0.95288005     0.84200
O1565       O  0.38852080  0.88891024  0.81201503    -0.77900
C1566       C  0.44458640  0.86336747  0.93119288     0.84300
C1567       C  0.36583802  0.94270363  0.92796541     0.84600
O1568       O  0.38860559  0.93990526  0.90985688    -0.80300
N1569       N  0.43500220  0.90894300  0.75977332    -0.02800
C1570       C  0.43395728  0.89165854  0.73345705    -0.00200
C1571       C  0.43308175  0.86207742  0.74258197    -0.23100
C1572       C  0.43213848  0.86138606  0.77454258    -0.23300
C1573       C  0.43304172  0.89052367  0.78505687    -0.00300
H1574       H  0.42810697  0.84322648  0.72764976     0.13500
H1575       H  0.42667838  0.84193053  0.78837120     0.13500
N1576       N  0.33047179  0.81279258  0.51116726    -0.02800
C1577       C  0.34578254  0.82309939  0.53652977    -0.00200
C1578       C  0.37092639  0.83853818  0.52777095    -0.23100
C1579       C  0.37587126  0.84257682  0.99313222    -0.23300
C1580       C  0.35003996  0.82785635  0.98528184    -0.00300
H1581       H  0.38644112  0.85003150  0.54295187     0.13500
H1582       H  0.39027224  0.85512245  0.97772298     0.13500
N1583       N  0.48556606  0.54427547  0.75715141    -0.35900
N1584       N  0.44914599  0.99103420  0.76042669    -0.56500
N1585       N  0.50388802  0.95540232  0.75914646    -0.35900
N1586       N  0.03891546  0.01017933  0.75478208    -0.56500
C1587       C  0.45824132  0.55613871  0.76327978     0.27700
C1588       C  0.00708038  0.56496736  0.75961596     0.27700
C1589       C  0.48368898  0.93359615  0.76417887     0.27700
C1590       C  0.03288588  0.94306386  0.75687357     0.27700
C1591       C  0.42750821  0.50977477  0.75558396     0.36300
C1592       C  0.43720512  0.96343800  0.75699727     0.36300
C1593       C  0.05395933  0.53431025  0.75795845     0.36300
C1594       C  0.06193131  0.99073842  0.75725169     0.36300
C1595       C  0.46193715  0.58530069  0.77324701    -0.21200
C1596       C  0.99214196  0.59149741  0.76540436    -0.21200
C1597       C  0.49881506  0.90744408  0.77167127    -0.21200
C1598       C  0.03138901  0.91241830  0.75598656    -0.21200
C1599       C  0.40099660  0.49423391  0.75074115    -0.22300
C1600       C  0.40728622  0.96527023  0.75080211    -0.22300
C1601       C  0.08457296  0.53140230  0.75559944    -0.22300
C1602       C  0.08850969  0.00650047  0.75842153    -0.22300
C1603       C  0.43011345  0.54159246  0.75931645    -0.17600
C1604       C  0.03877599  0.56198923  0.75889705    -0.17600
C1605       C  0.05981489  0.95896765  0.75867369    -0.17600
C1606       C  0.45218176  0.93616658  0.76068923    -0.17600
H1607       H  0.44454839  0.60081032  0.77982832     0.15300
H1608       H  0.00196913  0.61309392  0.76994643     0.15300
H1609       H  0.48972954  0.88566819  0.77642608     0.15300
H1610       H  0.04976620  0.89676538  0.75623060     0.15300
H1611       H  0.37879713  0.50225245  0.74744543     0.13600
H1612       H  0.39173750  0.94713519  0.74733808     0.13600
H1613       H  0.10083539  0.54907803  0.75339820     0.13600
H1614       H  0.11084375  0.99761171  0.76024773     0.13600
H1615       H  0.48964177  0.52343215  0.74770665     0.26800
H1616       H  0.49927306  0.97670655  0.75142460     0.26800
C1617       C  0.88428077  0.27065515  0.32660863     0.80900
N1618       N  0.88182736  0.24437538  0.34204108    -0.77400
C1619       C  0.87943163  0.21854427  0.32579402     0.83300
N1620       N  0.87974496  0.21912498  0.29408237    -0.77300
C1621       C  0.88268219  0.24535654  0.27862173     0.83400
N1622       N  0.88442357  0.27112474  0.29497359    -0.79100
C1623       C  0.88182287  0.27310123  0.19736480     0.80900
N1624       N  0.87798997  0.24734166  0.18131366    -0.77400
C1625       C  0.87578008  0.22102904  0.19660327     0.83300
N1626       N  0.87763328  0.22044621  0.22820596    -0.77300
C1627       C  0.88179317  0.24608453  0.24446595     0.83400
N1628       N  0.88349828  0.27250491  0.22901795    -0.79100
C1629       C  0.70147772  0.12241756  0.32708756     0.80900
N1630       N  0.72790090  0.11894056  0.34190351    -0.77400
C1631       C  0.75327805  0.11592135  0.32519253     0.83300
N1632       N  0.75229097  0.11678964  0.29354973    -0.77300
C1633       C  0.72596113  0.11976327  0.27824910     0.83400
N1634       N  0.70033437  0.12250137  0.29516981    -0.79100
C1635       C  0.70160418  0.12148778  0.19474459     0.80900
N1636       N  0.70040868  0.12139460  0.22662607    -0.77400
C1637       C  0.72611534  0.11987260  0.24357589     0.83300
N1638       N  0.75269626  0.11829103  0.22829444    -0.77300
C1639       C  0.75364358  0.11786534  0.19657359     0.83400
N1640       N  0.72809857  0.11962813  0.18002595    -0.79100
C1641       C  0.58922519  0.22911799  0.32888209     0.80900
N1642       N  0.58690079  0.22955577  0.29709272    -0.77400
C1643       C  0.59053541  0.25568076  0.28116002     0.83300
N1644       N  0.59702846  0.28098626  0.29756887    -0.77300
C1645       C  0.59959280  0.28032686  0.32939105     0.83400
N1646       N  0.59586315  0.25436474  0.34463782    -0.79100
C1647       C  0.59333753  0.23024830  0.19798048     0.80900
N1648       N  0.59730149  0.25650055  0.18296035    -0.77400
C1649       C  0.59664292  0.28267421  0.19870587     0.83300
N1650       N  0.59354246  0.28247514  0.23042918    -0.77300
C1651       C  0.59047065  0.25611051  0.24619955     0.83400
N1652       N  0.59001328  0.22999611  0.22967154    -0.79100
C1653       C  0.71846174  0.38917666  0.32229051     0.80900
N1654       N  0.74420631  0.38888101  0.33895221    -0.77400
C1655       C  0.77078193  0.38657101  0.32428913     0.83300
N1656       N  0.77148204  0.38495187  0.29244698    -0.77300
C1657       C  0.74568793  0.38562728  0.27556478     0.83400
N1658       N  0.71921093  0.38731643  0.29071541    -0.79100
C1659       C  0.72043377  0.37796887  0.19329989     0.80900
N1660       N  0.74656099  0.37805477  0.17783998    -0.77400
C1661       C  0.77239968  0.38059498  0.19373719     0.83300
N1662       N  0.77224175  0.38274433  0.22542273    -0.77300
C1663       C  0.74602326  0.38313718  0.24117950     0.83400
N1664       N  0.72001109  0.38111298  0.22491537    -0.79100
C1665       C  0.62860107  0.47932213  0.44152813     0.80900
N1666       N  0.62799824  0.47914125  0.47311463    -0.77400
C1667       C  0.63484881  0.00574719  0.49141367     0.83300
N1668       N  0.62934418  0.03146586  0.47571080    -0.77300
C1669       C  0.62644370  0.03124587  0.44411144     0.83400
N1670       N  0.62859725  0.00516445  0.42832665    -0.79100
C1671       C  0.63330078  0.47948930  0.07741749     0.80900
N1672       N  0.63335849  0.47853612  0.04565045    -0.77400
C1673       C  0.61763668  0.00272475  0.03119182     0.83300
N1674       N  0.61313868  0.02866673  0.04708837    -0.77300
C1675       C  0.61366281  0.02898482  0.07896742     0.83400
N1676       N  0.61894707  0.00359198  0.09484406    -0.79100
C1677       C  0.97049027  0.35971605  0.44774188     0.80900
N1678       N  0.99632806  0.36343386  0.43196850    -0.77400
C1679       C  0.52206986  0.36400708  0.44658867     0.83300
N1680       N  0.52244486  0.36112665  0.47840340    -0.77300
C1681       C  0.99743470  0.35714135  0.49516077     0.83400
N1682       N  0.97097267  0.35669237  0.47938103    -0.79100
C1683       C  0.97098788  0.35951532  0.07797841     0.80900
N1684       N  0.97106466  0.35796527  0.04630738    -0.77400
C1685       C  0.99706009  0.35987355  0.03010070     0.83300
N1686       N  0.52389055  0.36644654  0.04585184    -0.77300
C1687       C  0.52298890  0.36843166  0.07779264     0.83400
N1688       N  0.99678816  0.36352664  0.09373292    -0.79100
C1689       C  0.84475642  0.02216888  0.07503483     0.80900
N1690       N  0.84270978  0.02055529  0.04324579    -0.77400
C1691       C  0.84676921  0.99395647  0.02811236     0.83300
N1692       N  0.85691044  0.47043904  0.04405182    -0.77300
C1693       C  0.85938919  0.47186381  0.07585281     0.83400
N1694       N  0.85744980  0.49857046  0.09041170    -0.79100
C1695       C  0.85320968  0.01774739  0.44127363     0.80900
N1696       N  0.85991835  0.99232142  0.42573238    -0.77400
C1697       C  0.85990465  0.46821652  0.44546591     0.83300
N1698       N  0.85702687  0.46682770  0.47721545    -0.77300
C1699       C  0.85159464  0.49209797  0.49418737     0.83400
N1700       N  0.85030359  0.01714763  0.47312763    -0.79100
C1701       C  0.94866184  0.14020531  0.07485008     0.80900
N1702       N  0.94801840  0.13976229  0.04301803    -0.77400
C1703       C  0.97396576  0.14156050  0.02663955     0.83300
N1704       N  0.50316642  0.14495215  0.04498706    -0.77300
C1705       C  0.50405916  0.14511726  0.07663385     0.83400
N1706       N  0.97485917  0.14246034  0.09015888    -0.79100
C1707       C  0.95206854  0.12390546  0.44057097     0.80900
N1708       N  0.97850916  0.12618036  0.42588719    -0.77400
C1709       C  0.50165493  0.13525361  0.44820587     0.83300
N1710       N  0.50064995  0.13412041  0.47974655    -0.77300
C1711       C  0.97664087  0.12484670  0.48928908     0.83400
N1712       N  0.95082899  0.12356514  0.47247197    -0.79100
O1713       O  0.55360075  0.12639921  0.44577735    -0.77800
C1714       C  0.61914368  0.05875797  0.42744388     0.83200
O1715       O  0.64550967  0.18232250  0.43120142    -0.78900
O1716       O  0.65632093  0.10332548  0.34599766    -0.80400
O1717       O  0.54850683  0.11343206  0.33826840    -0.80200
O1718       O  0.53078501  0.14512049  0.40379524    -0.78800
Zn1719     Zn  0.59744102  0.12277340  0.43440072     1.55700
O1720       O  0.58930006  0.08727421  0.32796556    -0.80200
Cd1721     Cd  0.56395925  0.14337598  0.37093948     1.59700
Cd1722     Cd  0.63357269  0.16338644  0.38765664     1.59600
O1723       O  0.56912360  0.18331000  0.34690653    -0.80200
O1724       O  0.60276692  0.13112734  0.39059513    -1.90700
Cd1725     Cd  0.61583672  0.09490326  0.36704792     1.59900
O1726       O  0.61516071  0.19675388  0.36126401    -0.80200
O1727       O  0.62032989  0.05927905  0.39762505    -0.78800
C1728       C  0.63680970  0.17443595  0.45834006     0.83700
C1729       C  0.53028140  0.13589063  0.43188366     0.83400
O1730       O  0.61159228  0.08141765  0.44353386    -0.77800
C1731       C  0.56482399  0.09911116  0.31935730     0.84200
O1732       O  0.61999923  0.15176228  0.46203509    -0.77900
C1733       C  0.59108601  0.20128872  0.34624440     0.84300
C1734       C  0.67440914  0.12513410  0.34585608     0.84600
O1735       O  0.67009436  0.14877842  0.36186586    -0.80300
O1736       O  0.60105594  0.07938225  0.08137908    -0.77800
C1737       C  0.53253656  0.14378685  0.09299355     0.83200
O1738       O  0.64141457  0.18032964  0.08844975    -0.78900
O1739       O  0.57370858  0.18380835  0.18065411    -0.80400
O1740       O  0.58995007  0.08730874  0.19571239    -0.80200
O1741       O  0.61638340  0.05784381  0.12538642    -0.78800
Zn1742     Zn  0.59658528  0.12187377  0.09095388     1.55700
O1743       O  0.54940140  0.11356183  0.18477496    -0.80200
Cd1744     Cd  0.61569298  0.09391779  0.15616983     1.59700
Cd1745     Cd  0.63379282  0.16368808  0.13472019     1.59600
O1746       O  0.65668051  0.10186708  0.17600681    -0.80200
O1747       O  0.60337498  0.13106728  0.13406200    -1.90700
Cd1748     Cd  0.56606690  0.14507428  0.15469280     1.59900
O1749       O  0.67042255  0.14740592  0.15960498    -0.80200
O1750       O  0.53323574  0.15045603  0.12188541    -0.78800
C1751       C  0.63658483  0.16662510  0.06268086     0.83700
C1752       C  0.60994173  0.05674890  0.09631106     0.83400
O1753       O  0.55519915  0.13382352  0.07845739    -0.77800
C1754       C  0.56551204  0.09937365  0.20396506     0.84200
O1755       O  0.62581795  0.14057867  0.06236759    -0.77900
C1756       C  0.67468367  0.12378869  0.17582258     0.84300
C1757       C  0.59506881  0.20252983  0.17960671     0.84600
O1758       O  0.61776941  0.19869153  0.16207512    -0.80300
N1759       N  0.65401350  0.18524665  0.00914206    -0.02800
C1760       C  0.63352375  0.18237916  0.03258993    -0.00200
C1761       C  0.60527779  0.18838748  0.02191814    -0.23100
C1762       C  0.61204684  0.20565384  0.49405195    -0.23300
C1763       C  0.63981370  0.19491180  0.48552052    -0.00300
H1764       H  0.58459909  0.18570937  0.03462645     0.13500
H1765       H  0.59360748  0.21022142  0.47840913     0.13500
N1766       N  0.55345702  0.09234141  0.26136820    -0.02800
C1767       C  0.56348427  0.10823696  0.23655711    -0.00200
C1768       C  0.57784012  0.13385253  0.24598651    -0.23100
C1769       C  0.57753321  0.13372944  0.27771065    -0.23300
C1770       C  0.56309058  0.10798768  0.28663394    -0.00300
H1771       H  0.58919780  0.14985257  0.23131278     0.13500
H1772       H  0.58855505  0.14966828  0.29278777     0.13500
N1773       N  0.78479129  0.24962499  0.00943242    -0.35900
N1774       N  0.73521669  0.20650278  0.01251982    -0.56500
N1775       N  0.69418994  0.25711022  0.01261829    -0.35900
N1776       N  0.74296802  0.30033333  0.01284436    -0.56500
C1777       C  0.80027286  0.22352624  0.01147728     0.27700
C1778       C  0.80446071  0.27264037  0.01208733     0.27700
C1779       C  0.67624944  0.23423003  0.02145185     0.27700
C1780       C  0.68006967  0.28282174  0.02062178     0.27700
C1781       C  0.75773344  0.18707506  0.00709638     0.36300
C1782       C  0.70934609  0.19121164  0.00913842     0.36300
C1783       C  0.76855735  0.31593347  0.00876767     0.36300
C1784       C  0.71986915  0.31974195  0.00969690     0.36300
C1785       C  0.83022593  0.23015131  0.01526355    -0.21200
C1786       C  0.83285296  0.26088792  0.01559444    -0.21200
C1787       C  0.65092684  0.24605041  0.03552057    -0.21200
C1788       C  0.65312677  0.27627598  0.03442080    -0.21200
C1789       C  0.74604184  0.15907091  0.00086185    -0.22300
C1790       C  0.71536742  0.16177145  0.00187458    -0.22300
C1791       C  0.76158043  0.34569253  0.00365251    -0.22300
C1792       C  0.73078740  0.34804811  0.00406482    -0.22300
C1793       C  0.78867748  0.19378987  0.00891395    -0.17600
C1794       C  0.79811370  0.30397564  0.01018113    -0.17600
C1795       C  0.68931630  0.31225087  0.01392366    -0.17600
C1796       C  0.68058026  0.20331768  0.01436202    -0.17600
H1797       H  0.84844760  0.21443913  0.01722275     0.15300
H1798       H  0.85347287  0.27318492  0.01788083     0.15300
H1799       H  0.63234044  0.23505201  0.04626576     0.15300
H1800       H  0.63636571  0.29146310  0.04301471     0.15300
H1801       H  0.75832699  0.13880762  0.99607268     0.13600
H1802       H  0.69937042  0.14404973  0.99830696     0.13600
H1803       H  0.77707241  0.36382908  0.99998028     0.13600
H1804       H  0.71794301  0.36828814  0.00111527     0.13600
H1805       H  0.76220251  0.25158882  0.00539070     0.26800
H1806       H  0.71357893  0.25542058  0.99952131     0.26800
O1807       O  0.86254255  0.17028122  0.19421433    -0.77800
C1808       C  0.78192077  0.11705064  0.17972300     0.83200
O1809       O  0.89459475  0.06917907  0.17423879    -0.78900
O1810       O  0.82127147  0.06604982  0.09591782    -0.80400
O1811       O  0.83229356  0.17530077  0.08349800    -0.80200
O1812       O  0.86936633  0.19456812  0.14943658    -0.78800
Zn1813     Zn  0.84842899  0.12971175  0.18148133     1.55700
O1814       O  0.80201215  0.13607075  0.08091727    -0.80200
Cd1815     Cd  0.86276002  0.16134951  0.11678552     1.59700
Cd1816     Cd  0.88452533  0.09210209  0.13232978     1.59600
O1817       O  0.90160712  0.15525155  0.09227098    -0.80200
O1818       O  0.85232036  0.12269355  0.13722949    -1.90700
Cd1819     Cd  0.81469241  0.10819524  0.11737610     1.59900
O1820       O  0.92008747  0.11181747  0.10967634    -0.80200
O1821       O  0.78182262  0.10866783  0.15119618    -0.78800
C1822       C  0.88522818  0.07560708  0.20154842     0.83700
C1823       C  0.86912511  0.19380374  0.17916763     0.83400
O1824       O  0.80544689  0.12575365  0.19360446    -0.77800
C1825       C  0.81469332  0.15848050  0.06833713     0.84200
O1826       O  0.86998317  0.09908286  0.20656606    -0.77900
C1827       C  0.92185342  0.13541474  0.09306486     0.84300
C1828       C  0.84515252  0.05094654  0.09159677     0.84600
O1829       O  0.87006120  0.05890493  0.10300173    -0.80300
O1830       O  0.80403823  0.12665975  0.32802894    -0.77800
C1831       C  0.87270230  0.19069107  0.34206935     0.83200
O1832       O  0.89465615  0.06795802  0.33122080    -0.78900
O1833       O  0.90540698  0.14219217  0.42575918    -0.80400
O1834       O  0.80346301  0.13179307  0.43341885    -0.80200
O1835       O  0.78392891  0.10090117  0.36743895    -0.78800
Zn1836     Zn  0.84748498  0.12842482  0.33601714     1.55700
O1837       O  0.83884227  0.16628443  0.43729876    -0.80200
Cd1838     Cd  0.81850877  0.10241771  0.39961703     1.59700
Cd1839     Cd  0.88687444  0.08602675  0.37674500     1.59600
O1840       O  0.82877958  0.06241919  0.42375345    -0.80200
O1841       O  0.85496645  0.11751534  0.37825692    -1.90700
Cd1842     Cd  0.86759864  0.15376882  0.40171545     1.59900
O1843       O  0.87399564  0.05118974  0.40523799    -0.80200
O1844       O  0.87579933  0.18910929  0.37163703    -0.78800
C1845       C  0.88154933  0.07650450  0.30627744     0.83700
C1846       C  0.78192122  0.11414459  0.34109933     0.83400
O1847       O  0.86276502  0.16900892  0.32602600    -0.77800
C1848       C  0.81771284  0.15116825  0.44912149     0.84200
O1849       O  0.86464510  0.09922821  0.30627665    -0.77900
C1850       C  0.85185305  0.04560860  0.42292450     0.84300
C1851       C  0.92541160  0.12255404  0.42138352     0.84600
O1852       O  0.92374788  0.10260956  0.40008467    -0.80300
N1853       N  0.90080143  0.05758418  0.25408941    -0.02800
C1854       C  0.88491115  0.05325217  0.22711898    -0.00200
C1855       C  0.85555451  0.04671061  0.23464867    -0.23100
C1856       C  0.85221474  0.05188578  0.26577249    -0.23300
C1857       C  0.88012278  0.05815823  0.27751881    -0.00300
H1858       H  0.83707500  0.04546785  0.21838833     0.13500
H1859       H  0.83118350  0.05372844  0.27801150     0.13500
N1860       N  0.80961682  0.16897147  0.00950972    -0.02800
C1861       C  0.82089219  0.15478328  0.03515686    -0.00200
C1862       C  0.84018020  0.13218128  0.02704689    -0.23100
C1863       C  0.83625608  0.11944534  0.49032536    -0.23300
C1864       C  0.82027181  0.14453619  0.48228014    -0.00300
H1865       H  0.85194785  0.11724977  0.04266405     0.13500
H1866       H  0.84698770  0.10379393  0.47466934     0.13500
O1867       O  0.66670725  0.37919596  0.32555725    -0.77800
C1868       C  0.60740405  0.30730814  0.34720920     0.83200
O1869       O  0.58600227  0.43410342  0.34539974    -0.78900
O1870       O  0.57129333  0.35021520  0.43248964    -0.80400
O1871       O  0.67517415  0.37480378  0.43789858    -0.80200
O1872       O  0.69051201  0.39674794  0.36734220    -0.78800
Zn1873     Zn  0.62448170  0.37159835  0.34076104     1.55700
O1874       O  0.64369487  0.33787430  0.44878502    -0.80200
Cd1875     Cd  0.65835906  0.39669464  0.40020579     1.59700
Cd1876     Cd  0.58839266  0.40948660  0.38775142     1.59600
O1877       O  0.65145353  0.43907057  0.41640940    -0.80200
O1878       O  0.62079274  0.37917198  0.38491968    -1.90700
Cd1879     Cd  0.61243758  0.34271230  0.41045952     1.59900
O1880       O  0.60173776  0.44137236  0.41830566    -0.80200
O1881       O  0.60740120  0.30731644  0.37732656    -0.78800
C1882       C  0.59087790  0.42317014  0.31841546     0.83700
C1883       C  0.69022194  0.38873882  0.33897212     0.83400
O1884       O  0.61375157  0.33030879  0.33144467    -0.77800
C1885       C  0.66596700  0.35449296  0.45610795     0.84200
O1886       O  0.59583468  0.39551581  0.31516619    -0.77900
C1887       C  0.62735467  0.45165832  0.42466581     0.84300
C1888       C  0.54968825  0.36843426  0.42842348     0.84600
O1889       O  0.55093348  0.38997888  0.40872723    -0.80300
O1890       O  0.57546226  0.37327689  0.08227697    -0.77800
C1891       C  0.63178325  0.45210057  0.09534131     0.83200
O1892       O  0.65167347  0.32981209  0.08867933    -0.78900
O1893       O  0.67868263  0.40273267  0.17476078    -0.80400
O1894       O  0.58100369  0.40620966  0.20105831    -0.80200
O1895       O  0.54871738  0.37540292  0.12661037    -0.78800
Zn1896     Zn  0.61463597  0.38991762  0.09721290     1.55700
O1897       O  0.61785841  0.43764557  0.18905583    -0.80200
Cd1898     Cd  0.58203586  0.37511460  0.16259184     1.59700
Cd1899     Cd  0.64563007  0.34402142  0.13671774     1.59600
O1900       O  0.58448883  0.33266899  0.18403187    -0.80200
O1901       O  0.61967532  0.38101649  0.13946315    -1.90700
Cd1902     Cd  0.64042585  0.41695444  0.15407625     1.59900
O1903       O  0.62480989  0.31098645  0.16294396    -0.80200
O1904       O  0.64737120  0.44890703  0.11993720    -0.78800
C1905       C  0.65459453  0.35060597  0.06860489     0.83700
C1906       C  0.55052870  0.37241912  0.09663254     0.83400
O1907       O  0.61390090  0.43216965  0.08620474    -0.77800
C1908       C  0.59832608  0.42809209  0.20795819     0.84200
O1909       O  0.65312282  0.37709028  0.07811748    -0.77900
C1910       C  0.60225901  0.31046115  0.18117969     0.84300
C1911       C  0.69301675  0.37828702  0.17537201     0.84600
O1912       O  0.68485540  0.35484509  0.16056042    -0.80300
N1913       N  0.66570340  0.33445540  0.01132807    -0.02800
C1914       C  0.64918955  0.34745563  0.03468574    -0.00200
C1915       C  0.62596650  0.36392459  0.02233173    -0.23100
C1916       C  0.67823193  0.38646509  0.50123889    -0.23300
C1917       C  0.67622128  0.35809114  0.48903672    -0.00300
H1918       H  0.61006824  0.37747858  0.03491497     0.13500
H1919       H  0.67355023  0.40724799  0.48933393     0.13500
N1920       N  0.58385554  0.44216128  0.26423496    -0.02800
C1921       C  0.60367066  0.43665029  0.24092655    -0.00200
C1922       C  0.63208824  0.43477137  0.25298535    -0.23100
C1923       C  0.62971777  0.43888650  0.28445448    -0.23300
C1924       C  0.59970070  0.44175961  0.29145386    -0.00300
H1925       H  0.65223095  0.42889387  0.24049672     0.13500
H1926       H  0.64751813  0.43473204  0.30098432     0.13500
O1927       O  0.82350153  0.37268134  0.19165071    -0.77800
C1928       C  0.88104097  0.30135570  0.18038769     0.83200
O1929       O  0.92649307  0.40613901  0.17871202    -0.78900
O1930       O  0.92732886  0.33884878  0.09977685    -0.80400
O1931       O  0.82250751  0.35602114  0.07903068    -0.80200
O1932       O  0.80048902  0.38587266  0.14756080    -0.78800
Zn1933     Zn  0.86556174  0.36720615  0.18144287     1.55700
O1934       O  0.85933330  0.32271697  0.07949047    -0.80200
Cd1935     Cd  0.83476638  0.38435610  0.11536707     1.59700
Cd1936     Cd  0.90378603  0.40348487  0.13478283     1.59600
O1937       O  0.84258528  0.42495697  0.09337515    -0.80200
O1938       O  0.87205870  0.37230714  0.13724843    -1.90700
Cd1939     Cd  0.88487734  0.33402053  0.11807753     1.59900
O1940       O  0.88613155  0.44166878  0.11235249    -0.80200
O1941       O  0.88381092  0.30065642  0.15079853    -0.78800
C1942       C  0.91473264  0.40199382  0.20552756     0.83700
C1943       C  0.80027671  0.37994082  0.17670984     0.83400
O1944       O  0.87617963  0.32548122  0.19527387    -0.77800
C1945       C  0.83751068  0.33546290  0.06589847     0.84200
O1946       O  0.88707988  0.39694371  0.20790045    -0.77900
C1947       C  0.86305714  0.44464724  0.09483954     0.84300
C1948       C  0.94311085  0.36201269  0.09503340     0.84600
O1949       O  0.93609079  0.38768840  0.10531640    -0.80300
O1950       O  0.86958881  0.32050362  0.33056639    -0.77800
C1951       C  0.79827774  0.38249793  0.34279555     0.83200
O1952       O  0.92496814  0.40602411  0.33965042    -0.78900
O1953       O  0.84276305  0.42213582  0.42686789    -0.80400
O1954       O  0.85379492  0.31437677  0.43272299    -0.80200
O1955       O  0.89247007  0.29981195  0.37142298    -0.78800
Zn1956     Zn  0.86255923  0.36325869  0.34069336     1.55700
O1957       O  0.82597923  0.35406225  0.44306143    -0.80200
Cd1958     Cd  0.88585337  0.33238026  0.40409492     1.59700
Cd1959     Cd  0.90443440  0.40085181  0.38501055     1.59600
O1960       O  0.92433245  0.33975104  0.43041554    -0.80200
O1961       O  0.87178424  0.37011471  0.38364696    -1.90700
Cd1962     Cd  0.83395230  0.38203868  0.40488801     1.59900
O1963       O  0.93814468  0.38486871  0.41367879    -0.80200
O1964       O  0.79830244  0.38598704  0.37253364    -0.78800
C1965       C  0.91448190  0.39662967  0.31356957     0.83700
C1966       C  0.88238703  0.29853190  0.34371912     0.83400
O1967       O  0.82150788  0.37438095  0.32828513    -0.77800
C1968       C  0.83836557  0.32972662  0.45152449     0.84200
O1969       O  0.88917287  0.38428236  0.31205473    -0.77900
C1970       C  0.94249781  0.36160723  0.43018169     0.84300
C1971       C  0.86379974  0.44121262  0.42641386     0.84600
O1972       O  0.88718704  0.43814280  0.40937421    -0.80300
N1973       N  0.93290435  0.41136311  0.26002609    -0.02800
C1974       C  0.93260463  0.39443610  0.23357167    -0.00200
C1975       C  0.93317249  0.36468009  0.24169261    -0.23100
C1976       C  0.93331128  0.36328244  0.27357771    -0.23300
C1977       C  0.93259224  0.39226321  0.28483522    -0.00300
H1978       H  0.92914986  0.34596929  0.22627171     0.13500
H1979       H  0.92945090  0.34321133  0.28704085     0.13500
N1980       N  0.82326727  0.32455544  0.00831535    -0.02800
C1981       C  0.83974800  0.33700169  0.03191266    -0.00200
C1982       C  0.86221973  0.35484850  0.02048564    -0.23100
C1983       C  0.87097502  0.34463622  0.49382688    -0.23300
C1984       C  0.84695524  0.32784896  0.48430531    -0.00300
H1985       H  0.87834994  0.36747309  0.03388864     0.13500
H1986       H  0.88517605  0.35840978  0.47936878     0.13500
N1987       N  0.98374838  0.04399296  0.26031306    -0.35900
N1988       N  0.94676205  0.49363216  0.25867849    -0.56500
N1989       N  0.00155584  0.45802446  0.25764228    -0.35900
N1990       N  0.53729271  0.51086176  0.25920469    -0.56500
C1991       C  0.95621230  0.05562629  0.25488681     0.27700
C1992       C  0.50479962  0.06737126  0.25857792     0.27700
C1993       C  0.98145057  0.43603966  0.26208358     0.27700
C1994       C  0.52911830  0.44471215  0.26529874     0.27700
C1995       C  0.92596863  0.00888262  0.26224170     0.36300
C1996       C  0.93451080  0.46600523  0.25770571     0.36300
C1997       C  0.55231975  0.03770526  0.26088325     0.36300
C1998       C  0.55943935  0.49048608  0.25615418     0.36300
C1999       C  0.95926759  0.08505705  0.24566458    -0.21200
C2000       C  0.48970015  0.09374087  0.25245297    -0.21200
C2001       C  0.99671720  0.40955374  0.26778542    -0.21200
C2002       C  0.52637678  0.41559821  0.27517302    -0.21200
C2003       C  0.89952394  0.99307424  0.26631715    -0.22300
C2004       C  0.90415581  0.46787302  0.25416751    -0.22300
C2005       C  0.58302536  0.03573587  0.26097905    -0.22300
C2006       C  0.58623893  0.50512094  0.25105413    -0.22300
C2007       C  0.92834190  0.04069694  0.25837573    -0.17600
C2008       C  0.53647249  0.06496321  0.26081204    -0.17600
C2009       C  0.55661334  0.45905892  0.26051436    -0.17600
C2010       C  0.94981707  0.43873361  0.26054402    -0.17600
H2011       H  0.94156567  0.10048824  0.23983306     0.15300
H2012       H  0.49936289  0.11548181  0.24834067     0.15300
H2013       H  0.98795943  0.38754175  0.27169954     0.15300
H2014       H  0.54406856  0.40003034  0.28049526     0.15300
H2015       H  0.87720234  0.00115146  0.26902593     0.13600
H2016       H  0.88832694  0.44971791  0.25283539     0.13600
H2017       H  0.59889889  0.05388688  0.26134263     0.13600
H2018       H  0.60816050  0.49549240  0.24843474     0.13600
H2019       H  0.98835334  0.02299546  0.26902305     0.26800
H2020       H  0.99684337  0.47975484  0.25174379     0.26800
C2021       C  0.88212154  0.26675754  0.82360162     0.80900
N2022       N  0.87977885  0.24079995  0.83940330    -0.77400
C2023       C  0.87815480  0.21460512  0.82381365     0.83300
N2024       N  0.87931944  0.21416933  0.79214770    -0.77300
C2025       C  0.88229282  0.23994594  0.77598189     0.83400
N2026       N  0.88312706  0.26636319  0.79178112    -0.79100
C2027       C  0.88381294  0.26548195  0.69409536     0.80900
N2028       N  0.88185381  0.23957523  0.67803454    -0.77400
C2029       C  0.87976216  0.21341623  0.69351834     0.83300
N2030       N  0.88011587  0.21330856  0.72540315    -0.77300
C2031       C  0.88272501  0.23938665  0.74156684     0.83400
N2032       N  0.88402456  0.26541349  0.72570896    -0.79100
C2033       C  0.70109585  0.11000785  0.82651895     0.80900
N2034       N  0.72745825  0.11021829  0.84163358    -0.77400
C2035       C  0.75322082  0.10909077  0.82551284     0.83300
N2036       N  0.75275188  0.10811727  0.79377124    -0.77300
C2037       C  0.72644848  0.10757816  0.77796643     0.83400
N2038       N  0.70039070  0.10862963  0.79455275    -0.79100
C2039       C  0.70239312  0.10936505  0.69415306     0.80900
N2040       N  0.70123073  0.10833753  0.72602906    -0.77400
C2041       C  0.72694375  0.10724558  0.74306907     0.83300
N2042       N  0.75366350  0.10712767  0.72774942    -0.77300
C2043       C  0.75473343  0.10756197  0.69592769     0.83400
N2044       N  0.72906064  0.10896683  0.67944841    -0.79100
C2045       C  0.59448298  0.22554696  0.82206503     0.80900
N2046       N  0.59348269  0.22580638  0.79009291    -0.77400
C2047       C  0.59610941  0.25220094  0.77415127     0.83300
N2048       N  0.60021933  0.27789794  0.79063761    -0.77300
C2049       C  0.60127665  0.27756579  0.82245270     0.83400
N2050       N  0.59859203  0.25138951  0.83780728    -0.79100
C2051       C  0.60101374  0.22794737  0.69073752     0.80900
N2052       N  0.60533771  0.25427019  0.67600567    -0.77400
C2053       C  0.60458981  0.28019911  0.69213461     0.83300
N2054       N  0.60061561  0.27959804  0.72379034    -0.77300
C2055       C  0.59721931  0.25304634  0.73918886     0.83400
N2056       N  0.59708959  0.22724822  0.72231320    -0.79100
C2057       C  0.71923063  0.39099017  0.82135841     0.80900
N2058       N  0.74529598  0.39020252  0.83730162    -0.77400
C2059       C  0.77155354  0.38871574  0.82192647     0.83300
N2060       N  0.77176352  0.38828314  0.79018907    -0.77300
C2061       C  0.74580718  0.38975037  0.77384719     0.83400
N2062       N  0.71945230  0.39063344  0.78955821    -0.79100
C2063       C  0.72180228  0.38848945  0.69081765     0.80900
N2064       N  0.74815644  0.38554104  0.67601928    -0.77400
C2065       C  0.77371347  0.38411743  0.69255610     0.83300
N2066       N  0.77288837  0.38563666  0.72425463    -0.77300
C2067       C  0.74644290  0.38876593  0.73939991     0.83400
N2068       N  0.72075367  0.38981772  0.72253838    -0.79100
C2069       C  0.63268527  0.47632802  0.94652690     0.80900
N2070       N  0.63362187  0.47672703  0.97839099    -0.77400
C2071       C  0.61908785  0.00244920  0.99656414     0.83300
N2072       N  0.61485608  0.02810329  0.98008586    -0.77300
C2073       C  0.61642462  0.02792773  0.94828690     0.83400
N2074       N  0.62209472  0.00224140  0.93313857    -0.79100
C2075       C  0.62515334  0.47746253  0.57006470     0.80900
N2076       N  0.62584211  0.47816989  0.53847205    -0.77400
C2077       C  0.63501144  0.00534756  0.52567234     0.83300
N2078       N  0.63106942  0.03095173  0.54222484    -0.77300
C2079       C  0.62930797  0.03008745  0.57395385     0.83400
N2080       N  0.63145230  0.00371487  0.58886879    -0.79100
C2081       C  0.96777764  0.36004450  0.94795138     0.80900
N2082       N  0.99304371  0.36551393  0.93163678    -0.77400
C2083       C  0.52370533  0.36618475  0.94546280     0.83300
N2084       N  0.52436717  0.36467189  0.97738911    -0.77300
C2085       C  0.99590669  0.36020756  0.99505023     0.83400
N2086       N  0.96910583  0.35773673  0.97976985    -0.79100
C2087       C  0.97084780  0.35859914  0.57719259     0.80900
N2088       N  0.97137515  0.35532962  0.54566666    -0.77400
C2089       C  0.99753650  0.35779900  0.52986991     0.83300
N2090       N  0.52141378  0.36190509  0.54625135    -0.77300
C2091       C  0.52067250  0.36403741  0.57812379     0.83400
N2092       N  0.99609237  0.36451358  0.59309029    -0.79100
C2093       C  0.84945754  0.01598648  0.57261009     0.80900
N2094       N  0.84859856  0.01606807  0.54074882    -0.77400
C2095       C  0.85257462  0.99017737  0.52440009     0.83300
N2096       N  0.85612930  0.46500703  0.54518060    -0.77300
C2097       C  0.85888099  0.46506299  0.57706739     0.83400
N2098       N  0.85691700  0.49109629  0.59281550    -0.79100
C2099       C  0.84839817  0.01878977  0.94472166     0.80900
N2100       N  0.85591212  0.99327009  0.92987186    -0.77400
C2101       C  0.85906474  0.46818277  0.94376008     0.83300
N2102       N  0.85700091  0.46829515  0.97576052    -0.77300
C2103       C  0.85246654  0.49453895  0.99168230     0.83400
N2104       N  0.84451941  0.01876278  0.97631778    -0.79100
C2105       C  0.95417419  0.12257568  0.57324525     0.80900
N2106       N  0.95206532  0.12254025  0.54139804    -0.77400
C2107       C  0.97727289  0.12453716  0.52375627     0.83300
N2108       N  0.50181622  0.13057189  0.54384119    -0.77300
C2109       C  0.50379101  0.12858436  0.57529212     0.83400
N2110       N  0.98109103  0.12544120  0.58713473    -0.79100
C2111       C  0.95079344  0.13043365  0.94386346     0.80900
N2112       N  0.97734279  0.13220613  0.92925741    -0.77400
C2113       C  0.50437134  0.13812943  0.94826312     0.83300
N2114       N  0.50348370  0.14063089  0.97984246    -0.77300
C2115       C  0.97454207  0.13913895  0.99223289     0.83400
N2116       N  0.94917335  0.13436432  0.97541591    -0.79100
O2117       O  0.55591466  0.12807022  0.94549262    -0.77800
C2118       C  0.61220435  0.05519541  0.93005887     0.83200
O2119       O  0.64475771  0.17960069  0.92778875    -0.78900
O2120       O  0.65497391  0.09334843  0.84623130    -0.80400
O2121       O  0.54905151  0.11261742  0.83646298    -0.80200
O2122       O  0.53289049  0.14472913  0.90271342    -0.78800
Zn2123     Zn  0.59831039  0.12046822  0.93263838     1.55700
O2124       O  0.58763145  0.08280946  0.82752184    -0.80200
Cd2125     Cd  0.56549858  0.14215269  0.86896125     1.59700
Cd2126     Cd  0.63537046  0.15839528  0.88394456     1.59600
O2127       O  0.57227299  0.18198453  0.84413232    -0.80200
O2128       O  0.60343562  0.12750583  0.88837880    -1.90700
Cd2129     Cd  0.61371493  0.08899464  0.86724807     1.59900
O2130       O  0.62025358  0.19145409  0.85382986    -0.80200
O2131       O  0.61395044  0.05438221  0.90019374    -0.78800
C2132       C  0.63771748  0.17064441  0.95521976     0.83700
C2133       C  0.53268637  0.13727825  0.93143821     0.83400
O2134       O  0.60718982  0.07913452  0.94481733    -0.77800
C2135       C  0.56474959  0.09701411  0.81806261     0.84200
O2136       O  0.62384266  0.14625090  0.95926365    -0.77900
C2137       C  0.59569540  0.19772126  0.84031075     0.84300
C2138       C  0.67408052  0.11429369  0.84513689     0.84600
O2139       O  0.67100385  0.13881396  0.86014249    -0.80300
O2140       O  0.61580684  0.08027456  0.57644211    -0.77800
C2141       C  0.53249067  0.13053545  0.59067881     0.83200
O2142       O  0.64945904  0.17462771  0.58810222    -0.78900
O2143       O  0.57714612  0.18678067  0.66741766    -0.80400
O2144       O  0.58340540  0.08354850  0.69105257    -0.80200
O2145       O  0.61951147  0.05571367  0.62162387    -0.78800
Zn2146     Zn  0.59809812  0.11849273  0.58855475     1.55700
O2147       O  0.55266057  0.12237267  0.68555614    -0.80200
Cd2148     Cd  0.61390513  0.09013022  0.65447766     1.59700
Cd2149     Cd  0.63934375  0.15630185  0.63289889     1.59600
O2150       O  0.65386723  0.09554261  0.67830358    -0.80200
O2151       O  0.60520475  0.12755995  0.63127820    -1.90700
Cd2152     Cd  0.56821120  0.14544125  0.64816358     1.59900
O2153       O  0.67465823  0.13579883  0.65632691    -0.80200
O2154       O  0.53422465  0.14460743  0.61639406    -0.78800
C2155       C  0.63481859  0.16937195  0.56305815     0.83700
C2156       C  0.62152969  0.05680613  0.59176542     0.83400
O2157       O  0.55485065  0.11793049  0.57817905    -0.77800
C2158       C  0.56396872  0.10167558  0.70185350     0.84200
O2159       O  0.61529485  0.14905636  0.56184955    -0.77900
C2160       C  0.67543293  0.11377639  0.67532276     0.84300
C2161       C  0.60156301  0.20049463  0.67233805     0.84600
O2162       O  0.62644334  0.19160748  0.66130574    -0.80300
N2163       N  0.65586134  0.18746770  0.51174965    -0.02800
C2164       C  0.63556094  0.18890673  0.53545016    -0.00200
C2165       C  0.60880399  0.20028640  0.52504280    -0.23100
C2166       C  0.60803937  0.19603446  0.99133839    -0.23300
C2167       C  0.63749276  0.19099530  0.98275836    -0.00300
H2168       H  0.58807686  0.20135796  0.53793076     0.13500
H2169       H  0.58925160  0.19805118  0.97555161     0.13500
N2170       N  0.55393649  0.09184614  0.75978596    -0.02800
C2171       C  0.56433775  0.10801915  0.73528934    -0.00200
C2172       C  0.58010206  0.13259388  0.74542030    -0.23100
C2173       C  0.58046414  0.13135552  0.77710557    -0.23300
C2174       C  0.56475243  0.10617951  0.78537525    -0.00300
H2175       H  0.59145343  0.14890388  0.73107950     0.13500
H2176       H  0.59218475  0.14644446  0.79254332     0.13500
N2177       N  0.79106074  0.24136422  0.50802465    -0.35900
N2178       N  0.73869970  0.20247756  0.51349949    -0.56500
N2179       N  0.70028461  0.25576733  0.50814110    -0.35900
N2180       N  0.75233546  0.29394675  0.50576246    -0.56500
C2181       C  0.80485794  0.21450278  0.51108157     0.27700
C2182       C  0.81197194  0.26317828  0.51086525     0.27700
C2183       C  0.68244610  0.23497993  0.52148743     0.27700
C2184       C  0.68877574  0.28292216  0.51560888     0.27700
C2185       C  0.75972557  0.18120409  0.50889773     0.36300
C2186       C  0.71170689  0.18893866  0.51153223     0.36300
C2187       C  0.77901881  0.30785846  0.50319354     0.36300
C2188       C  0.73106873  0.31486094  0.50061721     0.36300
C2189       C  0.83508094  0.21927872  0.51544876    -0.21200
C2190       C  0.83952967  0.24983563  0.51548310    -0.21200
C2191       C  0.66013121  0.24953196  0.53814673    -0.21200
C2192       C  0.66366914  0.27945471  0.53365258    -0.21200
C2193       C  0.74588800  0.15380085  0.50480740    -0.22300
C2194       C  0.71549067  0.15875078  0.50629604    -0.22300
C2195       C  0.77472091  0.33773126  0.49678712    -0.22300
C2196       C  0.74457669  0.34209788  0.49468657    -0.22300
C2197       C  0.79121758  0.18574322  0.50921893    -0.17600
C2198       C  0.80734244  0.29471175  0.50812400    -0.17600
C2199       C  0.70005540  0.31089351  0.50642228    -0.17600
C2200       C  0.68395090  0.20350917  0.51611260    -0.17600
H2201       H  0.85219554  0.20248076  0.51829164     0.15300
H2202       H  0.86077151  0.26094102  0.51817224     0.15300
H2203       H  0.64320444  0.24039824  0.55312918     0.15300
H2204       H  0.64936791  0.29656007  0.54309278     0.15300
H2205       H  0.75657705  0.13244604  0.50114494     0.13600
H2206       H  0.69820514  0.14204848  0.50428841     0.13600
H2207       H  0.79146361  0.35491553  0.49460029     0.13600
H2208       H  0.73422146  0.36344650  0.49065855     0.13600
H2209       H  0.76869476  0.24448466  0.50329433     0.26800
H2210       H  0.71803317  0.25164159  0.49306730     0.26800
O2211       O  0.86355604  0.16384150  0.69110699    -0.77800
C2212       C  0.78327274  0.10815101  0.67890083     0.83200
O2213       O  0.89352917  0.06126974  0.67820411    -0.78900
O2214       O  0.82541826  0.05857039  0.59468037    -0.80400
O2215       O  0.83992621  0.16238748  0.57821822    -0.80200
O2216       O  0.87641732  0.18543684  0.64622499    -0.78800
Zn2217     Zn  0.84956335  0.12337407  0.68001320     1.55700
O2218       O  0.80523790  0.12677145  0.58072349    -0.80200
Cd2219     Cd  0.86897254  0.15080002  0.61415880     1.59700
Cd2220     Cd  0.88760258  0.08276309  0.63457539     1.59600
O2221       O  0.90768739  0.14054386  0.59002212    -0.80200
O2222       O  0.85579532  0.11418487  0.63660744    -1.90700
Cd2223     Cd  0.81794463  0.09957837  0.61728799     1.59900
O2224       O  0.92558199  0.09929004  0.61271184    -0.80200
O2225       O  0.78399485  0.09896130  0.65062296    -0.78800
C2226       C  0.88457699  0.07082750  0.70469322     0.83700
C2227       C  0.87332571  0.18605677  0.67595033     0.83400
O2228       O  0.80629616  0.11860147  0.69241304    -0.77800
C2229       C  0.81901611  0.14715535  0.56593108     0.84200
O2230       O  0.87112986  0.09557387  0.70744526    -0.77900
C2231       C  0.92764450  0.12054455  0.59294097     0.84300
C2232       C  0.84936252  0.04355070  0.59086788     0.84600
O2233       O  0.87370640  0.05042439  0.60419350    -0.80300
O2234       O  0.80365532  0.12172816  0.82842669    -0.77800
C2235       C  0.87127063  0.18756612  0.84095412     0.83200
O2236       O  0.89444446  0.06593455  0.83696766    -0.78900
O2237       O  0.90364625  0.14569509  0.92751041    -0.80400
O2238       O  0.80499542  0.13238826  0.93961339    -0.80200
O2239       O  0.78246306  0.10181925  0.87077942    -0.78800
Zn2240     Zn  0.84649217  0.12570171  0.83837089     1.55700
O2241       O  0.83632123  0.17062889  0.93615186    -0.80200
Cd2242     Cd  0.81670991  0.10380704  0.90328610     1.59700
Cd2243     Cd  0.88611368  0.08601106  0.88189219     1.59600
O2244       O  0.82528059  0.06322248  0.92600682    -0.80200
O2245       O  0.85361341  0.11707124  0.88142837    -1.90700
Cd2246     Cd  0.86571529  0.15458812  0.90274864     1.59900
O2247       O  0.87162285  0.05206487  0.91054850    -0.80200
O2248       O  0.87423434  0.18737448  0.87051307    -0.78800
C2249       C  0.88176940  0.07375586  0.81146978     0.83700
C2250       C  0.78129482  0.11080631  0.84247871     0.83400
O2251       O  0.86122664  0.16538390  0.82589316    -0.77800
C2252       C  0.81758283  0.15524428  0.95143006     0.84200
O2253       O  0.86490389  0.09638493  0.81054219    -0.77900
C2254       C  0.84830194  0.04642976  0.92644763     0.84300
C2255       C  0.92408692  0.12623680  0.92495199     0.84600
O2256       O  0.92261602  0.10426566  0.90582312    -0.80300
N2257       N  0.89935191  0.05550452  0.75844427    -0.02800
C2258       C  0.88221989  0.05143208  0.73236583    -0.00200
C2259       C  0.85297853  0.04614050  0.74095376    -0.23100
C2260       C  0.85148261  0.04889288  0.77254994    -0.23300
C2261       C  0.88003886  0.05462528  0.78321066    -0.00300
H2262       H  0.83380941  0.04602528  0.72556016     0.13500
H2263       H  0.83107067  0.05048293  0.78593800     0.13500
N2264       N  0.81018515  0.15945786  0.50799048    -0.02800
C2265       C  0.82061346  0.14268602  0.53224026    -0.00200
C2266       C  0.83642918  0.11824257  0.52185747    -0.23100
C2267       C  0.84093527  0.13144322  0.99555021    -0.23300
C2268       C  0.82205372  0.15358350  0.98516875    -0.00300
H2269       H  0.84738755  0.10146245  0.53598570     0.13500
H2270       H  0.85342525  0.11576954  0.98141247     0.13500
O2271       O  0.66773887  0.38033128  0.82461913    -0.77800
C2272       C  0.60709755  0.30501996  0.84033998     0.83200
O2273       O  0.58867689  0.43259620  0.84266849    -0.78900
O2274       O  0.57088441  0.34858241  0.92882698    -0.80400
O2275       O  0.67299047  0.36203765  0.93936689    -0.80200
O2276       O  0.69207405  0.39290308  0.86838798    -0.78800
Zn2277     Zn  0.62589437  0.36963747  0.83813034     1.55700
O2278       O  0.64135117  0.32404783  0.93546652    -0.80200
Cd2279     Cd  0.66001162  0.39044513  0.90299613     1.59700
Cd2280     Cd  0.59141360  0.40931235  0.88609908     1.59600
O2281       O  0.65400884  0.43190911  0.92528535    -0.80200
O2282       O  0.62205877  0.37685153  0.88272885    -1.90700
Cd2283     Cd  0.60948993  0.33904117  0.90335320     1.59900
O2284       O  0.60601942  0.44184362  0.91643322    -0.80200
O2285       O  0.60206174  0.30567089  0.86974430    -0.78800
C2286       C  0.59208372  0.42090947  0.81572188     0.83700
C2287       C  0.69134485  0.38843904  0.83890622     0.83400
O2288       O  0.61738724  0.32748642  0.82592964    -0.77800
C2289       C  0.65924464  0.33999814  0.95147583     0.84200
O2290       O  0.59598960  0.39302773  0.81308423    -0.77900
C2291       C  0.63091130  0.44820170  0.92897652     0.84300
C2292       C  0.55109900  0.36901582  0.92671661     0.84600
O2293       O  0.55365068  0.39128583  0.90806608    -0.80300
O2294       O  0.57194779  0.37245191  0.57991760    -0.77800
C2295       C  0.62729462  0.44929287  0.58674226     0.83200
O2296       O  0.67604784  0.34337836  0.59359851    -0.78900
O2297       O  0.68473602  0.40998558  0.65929671    -0.80400
O2298       O  0.58356422  0.40311945  0.69689456    -0.80200
O2299       O  0.54871838  0.37023273  0.62603329    -0.78800
Zn2300     Zn  0.61361564  0.38272590  0.58846675     1.55700
O2301       O  0.62341323  0.43116895  0.68689184    -0.80200
Cd2302     Cd  0.58552164  0.37220730  0.65820627     1.59700
Cd2303     Cd  0.65215007  0.34729567  0.63641119     1.59600
O2304       O  0.59139951  0.33010059  0.67923545    -0.80200
O2305       O  0.62203221  0.37942593  0.63231902    -1.90700
Cd2306     Cd  0.64120090  0.41670686  0.64629557     1.59900
O2307       O  0.63167426  0.30997913  0.65623709    -0.80200
O2308       O  0.63639443  0.44997996  0.61476801    -0.78800
C2309       C  0.66575293  0.34823792  0.56622618     0.83700
C2310       C  0.54844688  0.36914477  0.59592921     0.83400
O2311       O  0.61917318  0.42520549  0.57344944    -0.77800
C2312       C  0.60247494  0.42325057  0.70489089     0.84200
O2313       O  0.63873553  0.35581297  0.56215058    -0.77900
C2314       C  0.60952686  0.30838683  0.67508325     0.84300
C2315       C  0.69478590  0.38662922  0.67244916     0.84600
O2316       O  0.68279271  0.36116786  0.66901475    -0.80300
N2317       N  0.68225550  0.33754329  0.51175851    -0.02800
C2318       C  0.68542569  0.35340146  0.53895215    -0.00200
C2319       C  0.68557677  0.38356997  0.53193124    -0.23100
C2320       C  0.62754436  0.36151834  0.99096836    -0.23300
C2321       C  0.65169904  0.34369549  0.98454109    -0.00300
H2322       H  0.68483049  0.40174251  0.54861525     0.13500
H2323       H  0.61303311  0.37244582  0.97429120     0.13500
N2324       N  0.58623336  0.43816566  0.76050692    -0.02800
C2325       C  0.60674666  0.43223451  0.73796752    -0.00200
C2326       C  0.63484590  0.43110215  0.75097404    -0.23100
C2327       C  0.63155918  0.43605003  0.78221950    -0.23300
C2328       C  0.60136208  0.43868449  0.78823065    -0.00300
H2329       H  0.65546061  0.42537356  0.73927774     0.13500
H2330       H  0.64898781  0.43288115  0.79939537     0.13500
O2331       O  0.82447238  0.37202951  0.69224035    -0.77800
C2332       C  0.88213995  0.29342991  0.67747301     0.83200
O2333       O  0.92585169  0.40385881  0.68174417    -0.78900
O2334       O  0.92706030  0.33608567  0.59521817    -0.80400
O2335       O  0.82738702  0.34686421  0.57753064    -0.80200
O2336       O  0.80203749  0.37977046  0.64632503    -0.78800
Zn2337     Zn  0.86478121  0.35816214  0.68071379     1.55700
O2338       O  0.85975627  0.30995881  0.58456603    -0.80200
Cd2339     Cd  0.83663817  0.37605362  0.61443338     1.59700
Cd2340     Cd  0.90373982  0.39803035  0.63745976     1.59600
O2341       O  0.84400724  0.41663431  0.59216599    -0.80200
O2342       O  0.87333872  0.36520099  0.63772643    -1.90700
Cd2343     Cd  0.88782616  0.32765616  0.61790504     1.59900
O2344       O  0.88536990  0.43531534  0.61411835    -0.80200
O2345       O  0.89327431  0.29504612  0.65029801    -0.78800
C2346       C  0.91841733  0.39102191  0.70727383     0.83700
C2347       C  0.80162156  0.37862370  0.67616036     0.83400
O2348       O  0.86877307  0.31513911  0.69041522    -0.77800
C2349       C  0.84157373  0.32416228  0.56743277     0.84200
O2350       O  0.89471534  0.37572282  0.70892913    -0.77900
C2351       C  0.86325672  0.43735094  0.59515504     0.84300
C2352       C  0.94315897  0.35935654  0.59420482     0.84600
O2353       O  0.93697375  0.38331990  0.60874644    -0.80300
O2354       O  0.86838556  0.31730186  0.82710319    -0.77800
C2355       C  0.79904143  0.38367285  0.83960737     0.83200
O2356       O  0.92460600  0.40245002  0.83973746    -0.78900
O2357       O  0.84204262  0.42071654  0.92734379    -0.80400
O2358       O  0.84991347  0.31522995  0.93449993    -0.80200
O2359       O  0.88773046  0.29597508  0.86960179    -0.78800
Zn2360     Zn  0.86201535  0.36022222  0.83808433     1.55700
O2361       O  0.81659362  0.35201107  0.93571999    -0.80200
Cd2362     Cd  0.88272982  0.32955768  0.90327091     1.59700
Cd2363     Cd  0.90192664  0.39874833  0.88392571     1.59600
O2364       O  0.92227660  0.33759272  0.92947640    -0.80200
O2365       O  0.86993571  0.36738264  0.88188219    -1.90700
Cd2366     Cd  0.83252985  0.38178594  0.90241100     1.59900
O2367       O  0.93424918  0.38375047  0.91431160    -0.80200
O2368       O  0.79955453  0.38890985  0.86892999    -0.78800
C2369       C  0.91582589  0.39246740  0.81322349     0.83700
C2370       C  0.87970362  0.29492818  0.84093882     0.83400
O2371       O  0.82132176  0.37284032  0.82526153    -0.77800
C2372       C  0.83059685  0.33081862  0.94901971     0.84200
O2373       O  0.89064080  0.38005425  0.81015785    -0.77900
C2374       C  0.93941619  0.36043679  0.93039768     0.84300
C2375       C  0.86255460  0.44031655  0.92539484     0.84600
O2376       O  0.88484390  0.43727691  0.90677435    -0.80300
N2377       N  0.93649012  0.40609178  0.76045613    -0.02800
C2378       C  0.93856178  0.38800242  0.73485645    -0.00200
C2379       C  0.94206684  0.35881300  0.74486169    -0.23100
C2380       C  0.93969194  0.35875018  0.77665818    -0.23300
C2381       C  0.93600633  0.38801729  0.78610965    -0.00300
H2382       H  0.94055572  0.33905298  0.73038638     0.13500
H2383       H  0.93651537  0.33905329  0.79089452     0.13500
N2384       N  0.83316620  0.31431832  0.50890229    -0.02800
C2385       C  0.84868112  0.32455727  0.53418085    -0.00200
C2386       C  0.87215150  0.34245006  0.52530562    -0.23100
C2387       C  0.86033057  0.35388905  0.98908411    -0.23300
C2388       C  0.83680881  0.33540904  0.98204414    -0.00300
H2389       H  0.88731664  0.35440583  0.54049332     0.13500
H2390       H  0.87468477  0.36549560  0.97279628     0.13500
N2391       N  0.98296661  0.04453678  0.75834841    -0.35900
N2392       N  0.95098326  0.48831279  0.75964257    -0.56500
N2393       N  0.00569973  0.45266022  0.76242328    -0.35900
N2394       N  0.53998218  0.50710820  0.75692574    -0.56500
C2395       C  0.95484916  0.05581918  0.75568574     0.27700
C2396       C  0.50444400  0.06810103  0.76065137     0.27700
C2397       C  0.98549912  0.43050539  0.76513235     0.27700
C2398       C  0.53164298  0.44037984  0.75659970     0.27700
C2399       C  0.92622735  0.00782813  0.76183476     0.36300
C2400       C  0.93929245  0.46062646  0.75580948     0.36300
C2401       C  0.55129343  0.03755308  0.75755022     0.36300
C2402       C  0.56217155  0.48681198  0.75344475     0.36300
C2403       C  0.95665039  0.08593494  0.74877345    -0.21200
C2404       C  0.48957560  0.09471900  0.76619639    -0.21200
C2405       C  0.00082195  0.40384740  0.76993428    -0.21200
C2406       C  0.52887200  0.41006180  0.76071542    -0.21200
C2407       C  0.90025622  0.99130464  0.76619614    -0.22300
C2408       C  0.91021022  0.46254116  0.74599328    -0.22300
C2409       C  0.58186002  0.03510128  0.75481232    -0.22300
C2410       C  0.58912295  0.50152166  0.74987264    -0.22300
C2411       C  0.92767213  0.03975657  0.75990122    -0.17600
C2412       C  0.53606644  0.06509293  0.75890677    -0.17600
C2413       C  0.55921821  0.45519224  0.75554212    -0.17600
C2414       C  0.95392380  0.43326299  0.76131895    -0.17600
H2415       H  0.93825583  0.10123772  0.74546081     0.15300
H2416       H  0.49945756  0.11643956  0.76987653     0.15300
H2417       H  0.99225770  0.38162974  0.77232435     0.15300
H2418       H  0.54659750  0.39383410  0.76310567     0.15300
H2419       H  0.87787199  0.99869234  0.77019584     0.13600
H2420       H  0.89513109  0.44438631  0.74078748     0.13600
H2421       H  0.59795525  0.05296341  0.75291874     0.13600
H2422       H  0.61102782  0.49187702  0.74711487     0.13600
H2423       H  0.98832958  0.02364476  0.76483969     0.26800
H2424       H  0.00107172  0.47464997  0.75752021     0.26800
C2425       C  0.88588486  0.76826519  0.32503909     0.80900
N2426       N  0.88127406  0.74241338  0.34030100    -0.77400
C2427       C  0.87755973  0.71681782  0.32424391     0.83300
N2428       N  0.87899328  0.71704725  0.29236987    -0.77300
C2429       C  0.88425088  0.74313459  0.27691526     0.83400
N2430       N  0.88701482  0.76873559  0.29343437    -0.79100
C2431       C  0.88963255  0.77227582  0.19595209     0.80900
N2432       N  0.88604936  0.74701753  0.17912190    -0.77400
C2433       C  0.88191938  0.72064447  0.19364002     0.83300
N2434       N  0.88164904  0.71932153  0.22534723    -0.77300
C2435       C  0.88563116  0.74438633  0.24253286     0.83400
N2436       N  0.88908526  0.77103425  0.22770387    -0.79100
C2437       C  0.70113371  0.61155761  0.32354961     0.80900
N2438       N  0.72745432  0.60971717  0.33884424    -0.77400
C2439       C  0.75345046  0.60953261  0.32292551     0.83300
N2440       N  0.75312288  0.61190121  0.29118985    -0.77300
C2441       C  0.72682814  0.61354710  0.27528421     0.83400
N2442       N  0.70072882  0.61344665  0.29169849    -0.79100
C2443       C  0.70201324  0.62340426  0.19238353     0.80900
N2444       N  0.70120580  0.61970051  0.22404898    -0.77400
C2445       C  0.72706231  0.61691616  0.24060291     0.83300
N2446       N  0.75350559  0.61744112  0.22496619    -0.77300
C2447       C  0.75413920  0.62019836  0.19328445     0.83400
N2448       N  0.72841681  0.62340428  0.17722530    -0.79100
C2449       C  0.59656771  0.72832568  0.32902218     0.80900
N2450       N  0.59329867  0.72894435  0.29741155    -0.77400
C2451       C  0.59390778  0.75541662  0.28190132     0.83300
N2452       N  0.59828235  0.78103650  0.29868799    -0.77300
C2453       C  0.60156085  0.78008932  0.33052964     0.83400
N2454       N  0.60081190  0.75367735  0.34529428    -0.79100
C2455       C  0.59327486  0.73037012  0.19828204     0.80900
N2456       N  0.59757331  0.75668492  0.18352446    -0.77400
C2457       C  0.59812443  0.78266198  0.19959028     0.83300
N2458       N  0.59580891  0.78230219  0.23133609    -0.77300
C2459       C  0.59258167  0.75594369  0.24693927     0.83400
N2460       N  0.59104976  0.72990607  0.23015015    -0.79100
C2461       C  0.72097880  0.88466450  0.32481712     0.80900
N2462       N  0.74689381  0.88424330  0.34101907    -0.77400
C2463       C  0.77317127  0.88245526  0.32582016     0.83300
N2464       N  0.77348990  0.88157971  0.29403499    -0.77300
C2465       C  0.74756519  0.88245338  0.27754662     0.83400
N2466       N  0.72123113  0.88355440  0.29311404    -0.79100
C2467       C  0.72319303  0.87863112  0.19466846     0.80900
N2468       N  0.74945346  0.87819821  0.17975152    -0.77400
C2469       C  0.77503435  0.87901714  0.19607102     0.83300
N2470       N  0.77453034  0.88024125  0.22777406    -0.77300
C2471       C  0.74805930  0.88116801  0.24312028     0.83400
N2472       N  0.72222366  0.88054522  0.22639584    -0.79100
C2473       C  0.63430470  0.97951066  0.44389858     0.80900
N2474       N  0.63721947  0.97974566  0.47538149    -0.77400
C2475       C  0.62483429  0.50504486  0.48906266     0.83300
N2476       N  0.62181979  0.53101140  0.47315463    -0.77300
C2477       C  0.62215454  0.53102830  0.44141034     0.83400
N2478       N  0.62529071  0.50512491  0.42566809    -0.79100
C2479       C  0.62288274  0.97776695  0.07930456     0.80900
N2480       N  0.62197867  0.97714399  0.04755620    -0.77400
C2481       C  0.63127834  0.50411048  0.02881210     0.83300
N2482       N  0.62773248  0.53051559  0.04419022    -0.77300
C2483       C  0.62731913  0.53135592  0.07604563     0.83400
N2484       N  0.63038163  0.50581021  0.09245508    -0.79100
C2485       C  0.97129752  0.85801552  0.44955799     0.80900
N2486       N  0.99724831  0.86271253  0.43437827    -0.77400
C2487       C  0.52326432  0.86386171  0.44847178     0.83300
N2488       N  0.52360227  0.85966805  0.48011807    -0.77300
C2489       C  0.99760704  0.85428361  0.49743006     0.83400
N2490       N  0.97136187  0.85388388  0.48112818    -0.79100
C2491       C  0.96954314  0.86238599  0.07428276     0.80900
N2492       N  0.97114726  0.86078577  0.04260567    -0.77400
C2493       C  0.99799246  0.86282042  0.02792684     0.83300
N2494       N  0.52833712  0.86362394  0.04729602    -0.77300
C2495       C  0.52822693  0.86454872  0.07939620     0.83400
N2496       N  0.99451511  0.86643033  0.09151727    -0.79100
C2497       C  0.85215466  0.52387758  0.07403333     0.80900
N2498       N  0.85006144  0.52255035  0.04215913    -0.77400
C2499       C  0.85267518  0.49576746  0.02684311     0.83300
N2500       N  0.85287284  0.96904847  0.04542671    -0.77300
C2501       C  0.85564102  0.97081050  0.07720634     0.83400
N2502       N  0.85190505  0.99740305  0.09160413    -0.79100
C2503       C  0.85041593  0.51975827  0.44686156     0.80900
N2504       N  0.85693241  0.49464558  0.43075351    -0.77400
C2505       C  0.86243809  0.96612925  0.44105422     0.83300
N2506       N  0.85906603  0.96533591  0.47274962    -0.77300
C2507       C  0.85354120  0.99085022  0.48920595     0.83400
N2508       N  0.84812153  0.51865163  0.47869882    -0.79100
C2509       C  0.95391115  0.63768206  0.07593934     0.80900
N2510       N  0.95202134  0.63892041  0.04419189    -0.77400
C2511       C  0.97721971  0.64159467  0.02675895     0.83300
N2512       N  0.50335313  0.63523021  0.04306795    -0.77300
C2513       C  0.50395753  0.63702007  0.07465634     0.83400
N2514       N  0.98076292  0.63980970  0.09012197    -0.79100
C2515       C  0.95110554  0.63344997  0.44687783     0.80900
N2516       N  0.97767151  0.63475180  0.43218334    -0.77400
C2517       C  0.50402565  0.63517057  0.44727847     0.83300
N2518       N  0.50272220  0.63717804  0.47884910    -0.77300
C2519       C  0.97581002  0.63651517  0.49568773     0.83400
N2520       N  0.95000179  0.63454869  0.47878925    -0.79100
O2521       O  0.55618095  0.62740864  0.44471676    -0.77800
C2522       C  0.61670417  0.55851829  0.42439164     0.83200
O2523       O  0.64734112  0.68110598  0.42605078    -0.78900
O2524       O  0.65201737  0.59824782  0.33824445    -0.80400
O2525       O  0.55329586  0.62633158  0.33093570    -0.80200
O2526       O  0.53256903  0.64439272  0.40257074    -0.78800
Zn2527     Zn  0.59929883  0.62276416  0.43137310     1.55700
O2528       O  0.58088676  0.58521498  0.32705340    -0.80200
Cd2529     Cd  0.56647984  0.64668221  0.37111165     1.59700
Cd2530     Cd  0.63775306  0.65837038  0.38344201     1.59600
O2531       O  0.57397482  0.68898004  0.35553409    -0.80200
O2532       O  0.60404252  0.62985922  0.38752386    -1.90700
Cd2533     Cd  0.61216262  0.59300603  0.36263230     1.59900
O2534       O  0.62378057  0.69030289  0.35243334    -0.80200
O2535       O  0.61652823  0.55836252  0.39450189    -0.78800
C2536       C  0.63851871  0.67409980  0.45348422     0.83700
C2537       C  0.53252198  0.63588718  0.43085883     0.83400
O2538       O  0.61156759  0.58175935  0.44043868    -0.77800
C2539       C  0.56291802  0.60424737  0.31540675     0.84200
O2540       O  0.62299668  0.65075664  0.45808304    -0.77900
C2541       C  0.59809362  0.70064110  0.34595013     0.84300
C2542       C  0.67398488  0.61588008  0.34204784     0.84600
O2543       O  0.67347013  0.63736621  0.36168438    -0.80300
O2544       O  0.61144447  0.58126907  0.07722416    -0.77800
C2545       C  0.53209563  0.63784904  0.09122578     0.83200
O2546       O  0.64118790  0.68361765  0.08693234    -0.78900
O2547       O  0.57268481  0.68469988  0.17883826    -0.80400
O2548       O  0.58779131  0.58415966  0.19014115    -0.80200
O2549       O  0.62304516  0.56003860  0.12254474    -0.78800
Zn2550     Zn  0.59690210  0.62146080  0.08910170     1.55700
O2551       O  0.54878083  0.61327386  0.18083226    -0.80200
Cd2552     Cd  0.61629293  0.59519264  0.15377407     1.59700
Cd2553     Cd  0.63363710  0.66523886  0.13272853     1.59600
O2554       O  0.65551642  0.60525923  0.17640379    -0.80200
O2555       O  0.60337731  0.63219520  0.13179306    -1.90700
Cd2556     Cd  0.56559987  0.64596390  0.15187353     1.59900
O2557       O  0.67124521  0.64853905  0.15588041    -0.80200
O2558       O  0.53338804  0.65039891  0.11792814    -0.78800
C2559       C  0.63068266  0.67331107  0.06126426     0.83700
C2560       C  0.62059227  0.55907287  0.09282633     0.83400
O2561       O  0.55417813  0.62463120  0.07892620    -0.77800
C2562       C  0.56427930  0.59746633  0.19926589     0.84200
O2563       O  0.61538335  0.64967239  0.06064899    -0.77900
C2564       C  0.67464340  0.62607969  0.17405497     0.84300
C2565       C  0.59463251  0.70285750  0.17923228     0.84600
O2566       O  0.61768021  0.69893567  0.16216784    -0.80300
N2567       N  0.65086089  0.69133468  0.00902627    -0.02800
C2568       C  0.62952157  0.69030205  0.03175018    -0.00200
C2569       C  0.60189216  0.69674672  0.01940014    -0.23100
C2570       C  0.60970434  0.70388547  0.48654553    -0.23300
C2571       C  0.63888116  0.69591441  0.47979783    -0.00300
H2572       H  0.58059322  0.69498940  0.03112160     0.13500
H2573       H  0.59192768  0.70680935  0.46966871     0.13500
N2574       N  0.55316356  0.59272077  0.25747176    -0.02800
C2575       C  0.56429936  0.60671127  0.23179462    -0.00200
C2576       C  0.58060756  0.63156634  0.23969838    -0.23100
C2577       C  0.58012554  0.63330185  0.27125055    -0.23300
C2578       C  0.56367400  0.60932280  0.28174287    -0.00300
H2579       H  0.59282624  0.64606565  0.22409303     0.13500
H2580       H  0.59183896  0.64958728  0.28533794     0.13500
N2581       N  0.78488919  0.74897000  0.00735614    -0.35900
N2582       N  0.73296518  0.70902074  0.01206583    -0.56500
N2583       N  0.69439257  0.76173482  0.01385843    -0.35900
N2584       N  0.74562312  0.80185685  0.01292103    -0.56500
C2585       C  0.79873958  0.72211237  0.01121344     0.27700
C2586       C  0.80535766  0.77093902  0.01211212     0.27700
C2587       C  0.67443745  0.73992488  0.02051475     0.27700
C2588       C  0.68114194  0.78821691  0.02052939     0.27700
C2589       C  0.75432209  0.68832932  0.00616487     0.36300
C2590       C  0.70617979  0.69518176  0.00918403     0.36300
C2591       C  0.77198423  0.81614228  0.00900035     0.36300
C2592       C  0.72370080  0.82274696  0.01143598     0.36300
C2593       C  0.82847150  0.72717944  0.01804337    -0.21200
C2594       C  0.83261669  0.75774741  0.01863349    -0.21200
C2595       C  0.64851237  0.75334704  0.03168204    -0.21200
C2596       C  0.65263508  0.78335463  0.03120773    -0.21200
C2597       C  0.74091786  0.66104461  0.00023813    -0.22300
C2598       C  0.71050001  0.66544781  0.00191860    -0.22300
C2599       C  0.76675398  0.84646148  0.00561877    -0.22300
C2600       C  0.73621107  0.85060768  0.00702773    -0.22300
C2601       C  0.78574213  0.69308805  0.00777193    -0.17600
C2602       C  0.80077841  0.80256067  0.00991674    -0.17600
C2603       C  0.69274821  0.81706504  0.01565816    -0.17600
C2604       C  0.67789929  0.70866521  0.01422334    -0.17600
H2605       H  0.84553172  0.71056268  0.02209872     0.15300
H2606       H  0.85346949  0.76898708  0.02332742     0.15300
H2607       H  0.62816566  0.74376224  0.04004123     0.15300
H2608       H  0.63609163  0.79960913  0.03804548     0.15300
H2609       H  0.75188469  0.64007027  0.99532066     0.13600
H2610       H  0.69351320  0.64862063  0.99863056     0.13600
H2611       H  0.78325743  0.86381136  0.00267243     0.13600
H2612       H  0.72458032  0.87170806  0.00551274     0.13600
H2613       H  0.76300100  0.75213739  0.00055893     0.26800
H2614       H  0.71489326  0.75887995  0.00323324     0.26800
O2615       O  0.86483352  0.67187149  0.19035591    -0.77800
C2616       C  0.78242457  0.62012787  0.17631477     0.83200
O2617       O  0.89579535  0.57398459  0.18195785    -0.78900
O2618       O  0.82797685  0.56848150  0.09233757    -0.80400
O2619       O  0.83786150  0.67293625  0.07762012    -0.80200
O2620       O  0.87441658  0.69535755  0.14564987    -0.78800
Zn2621     Zn  0.84757356  0.63357075  0.17851615     1.55700
O2622       O  0.80203580  0.63893702  0.08279436    -0.80200
Cd2623     Cd  0.86681907  0.66133601  0.11375963     1.59700
Cd2624     Cd  0.88826676  0.59341959  0.13648330     1.59600
O2625       O  0.90623964  0.65284410  0.09110859    -0.80200
O2626       O  0.85515327  0.62399896  0.13595409    -1.90700
Cd2627     Cd  0.81792185  0.60903306  0.11603333     1.59900
O2628       O  0.92546063  0.61229354  0.11428539    -0.80200
O2629       O  0.78420560  0.60720379  0.14972123    -0.78800
C2630       C  0.88160731  0.58141074  0.20670693     0.83700
C2631       C  0.87369639  0.69454421  0.17544253     0.83400
O2632       O  0.80448406  0.63329486  0.18869119    -0.77800
C2633       C  0.81577168  0.65844062  0.06670406     0.84200
O2634       O  0.86412733  0.60358276  0.20665356    -0.77900
C2635       C  0.92711760  0.63399992  0.09489592     0.84300
C2636       C  0.85162364  0.55236914  0.09152315     0.84600
O2637       O  0.87493194  0.55894268  0.10719859    -0.80300
O2638       O  0.80395330  0.62276865  0.32777976    -0.77800
C2639       C  0.86979091  0.68987744  0.34166622     0.83200
O2640       O  0.89535686  0.56831611  0.34006284    -0.78900
O2641       O  0.90369908  0.64921070  0.42959875    -0.80400
O2642       O  0.79990894  0.63301757  0.43538450    -0.80200
O2643       O  0.78276650  0.59954575  0.36811814    -0.78800
Zn2644     Zn  0.84674336  0.62766469  0.33956099     1.55700
O2645       O  0.83476988  0.66813566  0.43996410    -0.80200
Cd2646     Cd  0.81601390  0.60316414  0.40236021     1.59700
Cd2647     Cd  0.88671316  0.58858119  0.38477215     1.59600
O2648       O  0.82564690  0.56333920  0.42716185    -0.80200
O2649       O  0.85347046  0.61879670  0.38295179    -1.90700
Cd2650     Cd  0.86467333  0.65654979  0.40473275     1.59900
O2651       O  0.87313852  0.55468123  0.41408610    -0.80200
O2652       O  0.87152045  0.68996946  0.37150867    -0.78800
C2653       C  0.88378800  0.57656733  0.31410639     0.83700
C2654       C  0.78162021  0.61026646  0.34043525     0.83400
O2655       O  0.86087038  0.66732722  0.32655099    -0.77800
C2656       C  0.81380827  0.65245906  0.45145239     0.84200
O2657       O  0.86731586  0.59945707  0.31260988    -0.77900
C2658       C  0.84960716  0.54789381  0.42911472     0.84300
C2659       C  0.92422724  0.62967136  0.42769485     0.84600
O2660       O  0.92277462  0.60745673  0.40890317    -0.80300
N2661       N  0.89899244  0.56202394  0.25963140    -0.02800
C2662       C  0.87933551  0.56253786  0.23514442    -0.00200
C2663       C  0.85085976  0.55686510  0.24577385    -0.23100
C2664       C  0.85273135  0.55233342  0.27711337    -0.23300
C2665       C  0.88208522  0.55729733  0.28588961    -0.00300
H2666       H  0.83035130  0.55907323  0.23262820     0.13500
H2667       H  0.83364892  0.55151352  0.29258895     0.13500
N2668       N  0.80503034  0.66678043  0.00797059    -0.02800
C2669       C  0.81659183  0.65213238  0.03331356    -0.00200
C2670       C  0.83223132  0.62700951  0.02480118    -0.23100
C2671       C  0.83097959  0.62005035  0.49288383    -0.23300
C2672       C  0.81599313  0.64570704  0.48468912    -0.00300
H2673       H  0.84382005  0.61161362  0.04006931     0.13500
H2674       H  0.84112368  0.60392729  0.47733128     0.13500
O2675       O  0.67021157  0.87246033  0.33022391    -0.77800
C2676       C  0.60819196  0.80708157  0.34879219     0.83200
O2677       O  0.58700507  0.93263443  0.34678357    -0.78900
O2678       O  0.57189204  0.84887525  0.43337132    -0.80400
O2679       O  0.68021623  0.86962681  0.43816866    -0.80200
O2680       O  0.69302919  0.89599643  0.36919355    -0.78800
Zn2681     Zn  0.62767782  0.86973460  0.34416582     1.55700
O2682       O  0.64339752  0.83908182  0.45199615    -0.80200
Cd2683     Cd  0.66166039  0.89458440  0.40328680     1.59700
Cd2684     Cd  0.59118656  0.90963262  0.39012207     1.59600
O2685       O  0.65569555  0.93625655  0.42244217    -0.80200
O2686       O  0.62312118  0.87856069  0.38781197    -1.90700
Cd2687     Cd  0.61364598  0.84195441  0.41248595     1.59900
O2688       O  0.60648461  0.94320206  0.41830514    -0.80200
O2689       O  0.60990776  0.80646358  0.37890010    -0.78800
C2690       C  0.59625684  0.92361329  0.32020154     0.83700
C2691       C  0.69313634  0.88462614  0.34206653     0.83400
O2692       O  0.61286544  0.83056124  0.33331525    -0.77800
C2693       C  0.66757074  0.85323210  0.45827883     0.84200
O2694       O  0.60699383  0.89771910  0.31665196    -0.77900
C2695       C  0.63218406  0.95138156  0.42742412     0.84300
C2696       C  0.55115852  0.86828498  0.43060744     0.84600
O2697       O  0.55360643  0.89109595  0.41264722    -0.80300
O2698       O  0.58112285  0.86634993  0.08468077    -0.77800
C2699       C  0.62608784  0.95055420  0.09696552     0.83200
O2700       O  0.65746098  0.83208789  0.09037500    -0.78900
O2701       O  0.68470102  0.90434806  0.17066749    -0.80400
O2702       O  0.58485631  0.90754868  0.20332388    -0.80200
O2703       O  0.55354857  0.87443469  0.12773208    -0.78800
Zn2704     Zn  0.61749151  0.88757535  0.10057265     1.55700
O2705       O  0.62575438  0.93411529  0.19290986    -0.80200
Cd2706     Cd  0.58549971  0.87539581  0.16521931     1.59700
Cd2707     Cd  0.64874794  0.84356965  0.13908214     1.59600
O2708       O  0.58774982  0.83316412  0.18646800    -0.80200
O2709       O  0.62287781  0.88021462  0.14249596    -1.90700
Cd2710     Cd  0.64414400  0.91657577  0.15414553     1.59900
O2711       O  0.62657900  0.81024028  0.16356096    -0.80200
O2712       O  0.64379125  0.94937242  0.12016658    -0.78800
C2713       C  0.66080706  0.85468367  0.07262799     0.83700
C2714       C  0.55582562  0.86838021  0.09823024     0.83400
O2715       O  0.61033469  0.92858433  0.08902941    -0.77800
C2716       C  0.60439901  0.92734107  0.21090689     0.84200
O2717       O  0.65845785  0.87994042  0.08493816    -0.77900
C2718       C  0.60447009  0.81033882  0.18243894     0.84300
C2719       C  0.69641522  0.87904134  0.17600495     0.84600
O2720       O  0.68620019  0.85446489  0.16528409    -0.80300
N2721       N  0.67101051  0.84108582  0.01434510    -0.02800
C2722       C  0.65635132  0.85502123  0.03838808    -0.00200
C2723       C  0.63485720  0.87428896  0.02691310    -0.23100
C2724       C  0.67490362  0.88905481  0.50134987    -0.23300
C2725       C  0.67575528  0.85996860  0.49110509    -0.00300
H2726       H  0.62002488  0.88846302  0.04020391     0.13500
H2727       H  0.66947486  0.90862910  0.48768133     0.13500
N2728       N  0.58766992  0.94194952  0.26630103    -0.02800
C2729       C  0.60841590  0.93796171  0.24359150    -0.00200
C2730       C  0.63661001  0.93985164  0.25633349    -0.23100
C2731       C  0.63304976  0.94492375  0.28755781    -0.23300
C2732       C  0.60270991  0.94402800  0.29391914    -0.00300
H2733       H  0.65760970  0.93591524  0.24459307     0.13500
H2734       H  0.65086944  0.94333087  0.30456523     0.13500
O2735       O  0.82596676  0.86990340  0.19348712    -0.77800
C2736       C  0.88782986  0.80071921  0.17947313     0.83200
O2737       O  0.92773677  0.90444220  0.17809769    -0.78900
O2738       O  0.92458502  0.84082048  0.09200052    -0.80400
O2739       O  0.82294796  0.85549728  0.07965434    -0.80200
O2740       O  0.80241301  0.88382600  0.14992791    -0.78800
Zn2741     Zn  0.86757424  0.86505767  0.18153646     1.55700
O2742       O  0.85371267  0.81703189  0.08510572    -0.80200
Cd2743     Cd  0.83512834  0.88279039  0.11667319     1.59700
Cd2744     Cd  0.90364455  0.90303969  0.13477679     1.59600
O2745       O  0.84111931  0.92365117  0.09543284    -0.80200
O2746       O  0.87287979  0.87092009  0.13720928    -1.90700
Cd2747     Cd  0.88537318  0.83314947  0.11652619     1.59900
O2748       O  0.88475210  0.94138138  0.11293734    -0.80200
O2749       O  0.89156389  0.80078141  0.14996191    -0.78800
C2750       C  0.91651014  0.89943926  0.20500079     0.83700
C2751       C  0.80268611  0.87774035  0.17900722     0.83400
O2752       O  0.87983189  0.82385750  0.19447428    -0.77800
C2753       C  0.83554921  0.83229585  0.06879167     0.84200
O2754       O  0.88887200  0.89479808  0.20774166    -0.77900
C2755       C  0.86100977  0.94385923  0.09625413     0.84300
C2756       C  0.94116553  0.86385572  0.09040489     0.84600
O2757       O  0.93540927  0.88808949  0.10459388    -0.80300
O2758       O  0.87123108  0.81764205  0.32970109    -0.77800
C2759       C  0.80081331  0.87852726  0.34358736     0.83200
O2760       O  0.92805670  0.89991304  0.33859268    -0.78900
O2761       O  0.84595918  0.91883898  0.42552620    -0.80400
O2762       O  0.85637473  0.81103693  0.43305523    -0.80200
O2763       O  0.89489504  0.79674512  0.37002377    -0.78800
Zn2764     Zn  0.86479557  0.85977574  0.34016956     1.55700
O2765       O  0.82781379  0.85048146  0.44245781    -0.80200
Cd2766     Cd  0.88824740  0.82866642  0.40358909     1.59700
Cd2767     Cd  0.90669502  0.89686149  0.38362831     1.59600
O2768       O  0.92638996  0.83669293  0.43032788    -0.80200
O2769       O  0.87422461  0.86617056  0.38308454    -1.90700
Cd2770     Cd  0.83684341  0.87831989  0.40469692     1.59900
O2771       O  0.93931381  0.88236135  0.41444778    -0.80200
O2772       O  0.80115381  0.88191081  0.37324843    -0.78800
C2773       C  0.91728956  0.89097832  0.31249278     0.83700
C2774       C  0.88448113  0.79580344  0.34238349     0.83400
O2775       O  0.82383044  0.87075666  0.32856272    -0.77800
C2776       C  0.84036804  0.82643854  0.45139649     0.84200
O2777       O  0.89142598  0.87987408  0.31086473    -0.77900
C2778       C  0.94375081  0.85919511  0.43110189     0.84300
C2779       C  0.86621697  0.93858617  0.42289352     0.84600
O2780       O  0.88887809  0.93546575  0.40484314    -0.80300
N2781       N  0.93529941  0.90667347  0.25947817    -0.02800
C2782       C  0.93467565  0.89067563  0.23241071    -0.00200
C2783       C  0.93508431  0.86063521  0.23949410    -0.23100
C2784       C  0.93539350  0.85821898  0.27136415    -0.23300
C2785       C  0.93513414  0.88684823  0.28358042    -0.00300
H2786       H  0.93099151  0.84244955  0.22343964     0.13500
H2787       H  0.93142714  0.83779043  0.28418100     0.13500
N2788       N  0.82700629  0.82178873  0.01016182    -0.02800
C2789       C  0.84181214  0.83322248  0.03543641    -0.00200
C2790       C  0.86637431  0.84956018  0.02674686    -0.23100
C2791       C  0.87289662  0.84211548  0.49341553    -0.23300
C2792       C  0.84852168  0.82558062  0.48430347    -0.00300
H2793       H  0.88170584  0.86130677  0.04193590     0.13500
H2794       H  0.88813973  0.85417449  0.47846280     0.13500
N2795       N  0.98186274  0.54850983  0.25385934    -0.35900
N2796       N  0.94867598  0.98905898  0.25997536    -0.56500
N2797       N  0.00385309  0.95341159  0.26114030    -0.35900
N2798       N  0.54020670  0.01009321  0.26001106    -0.56500
C2799       C  0.95429640  0.56074484  0.25690980     0.27700
C2800       C  0.50351790  0.56903893  0.26094504     0.27700
C2801       C  0.98379676  0.93107816  0.26036793     0.27700
C2802       C  0.53335202  0.94307722  0.26149740     0.27700
C2803       C  0.92415443  0.51334424  0.25529078     0.36300
C2804       C  0.93667107  0.96139358  0.26261172     0.36300
C2805       C  0.54989256  0.53811346  0.25563432     0.36300
C2806       C  0.56307521  0.99039774  0.25995132     0.36300
C2807       C  0.95715092  0.59125914  0.26064524    -0.21200
C2808       C  0.48878770  0.59556024  0.26739690    -0.21200
C2809       C  0.99910649  0.90404067  0.25931488    -0.21200
C2810       C  0.53137852  0.91250935  0.26413306    -0.21200
C2811       C  0.89757540  0.49752525  0.25240663    -0.22300
C2812       C  0.90632510  0.96333606  0.26634643    -0.22300
C2813       C  0.58019303  0.53511458  0.25079261    -0.22300
C2814       C  0.58985924  0.00594201  0.26024136    -0.22300
C2815       C  0.92659559  0.54526988  0.25643098    -0.17600
C2816       C  0.53509836  0.56594251  0.25826777    -0.17600
C2817       C  0.56057211  0.95863818  0.26123941    -0.17600
C2818       C  0.95215180  0.93399985  0.26113481    -0.17600
H2819       H  0.93935604  0.60734070  0.26347447     0.15300
H2820       H  0.49877840  0.61713870  0.27161549     0.15300
H2821       H  0.99020076  0.88175757  0.25871020     0.15300
H2822       H  0.54953016  0.89666492  0.26570344     0.15300
H2823       H  0.87532852  0.50555114  0.24900599     0.13600
H2824       H  0.89065779  0.94516961  0.26897077     0.13600
H2825       H  0.59642935  0.55271182  0.24789102     0.13600
H2826       H  0.61221456  0.99712082  0.26009208     0.13600
H2827       H  0.98653429  0.52638696  0.24976790     0.26800
H2828       H  0.99892081  0.97575880  0.26252558     0.26800
C2829       C  0.87566602  0.76898832  0.82542247     0.80900
N2830       N  0.87558884  0.74297462  0.84140242    -0.77400
C2831       C  0.87201002  0.71692403  0.82589327     0.83300
N2832       N  0.86885256  0.71682764  0.79445436    -0.77300
C2833       C  0.86914401  0.74268874  0.77834980     0.83400
N2834       N  0.87218759  0.76888396  0.79390402    -0.79100
C2835       C  0.86961223  0.76750022  0.69660833     0.80900
N2836       N  0.86859148  0.74136282  0.68102953    -0.77400
C2837       C  0.86634129  0.71551130  0.69692465     0.83300
N2838       N  0.86572465  0.71580496  0.72866408    -0.77300
C2839       C  0.86728090  0.74213263  0.74431866     0.83400
N2840       N  0.86881693  0.76797759  0.72817887    -0.79100
C2841       C  0.70207667  0.61365928  0.82434438     0.80900
N2842       N  0.72903158  0.61262026  0.83828035    -0.77400
C2843       C  0.75414407  0.61049404  0.82109654     0.83300
N2844       N  0.75224480  0.60996952  0.78941290    -0.77300
C2845       C  0.72515744  0.61078372  0.77488633     0.83400
N2846       N  0.69993387  0.61257496  0.79254098    -0.79100
C2847       C  0.69934079  0.61464740  0.69154333     0.80900
N2848       N  0.69830826  0.61365586  0.72353035    -0.77400
C2849       C  0.72415055  0.61058388  0.74020219     0.83300
N2850       N  0.75033084  0.60838652  0.72461816    -0.77300
C2851       C  0.75108319  0.60862661  0.69302120     0.83400
N2852       N  0.72568236  0.61204553  0.67657943    -0.79100
C2853       C  0.59788511  0.72900285  0.82587715     0.80900
N2854       N  0.59653372  0.72897954  0.79393870    -0.77400
C2855       C  0.59807945  0.75524034  0.77770885     0.83300
N2856       N  0.60152988  0.78121806  0.79397169    -0.77300
C2857       C  0.60281099  0.78113104  0.82583984     0.83400
N2858       N  0.60118749  0.75501641  0.84142492    -0.79100
C2859       C  0.59932429  0.73020440  0.69400379     0.80900
N2860       N  0.60405063  0.75646584  0.67913657    -0.77400
C2861       C  0.60472336  0.78244720  0.69524045     0.83300
N2862       N  0.60183270  0.78202159  0.72699638    -0.77300
C2863       C  0.59824616  0.75566178  0.74263130     0.83400
N2864       N  0.59662242  0.72975174  0.72581945    -0.79100
C2865       C  0.72367481  0.89351417  0.82719825     0.80900
N2866       N  0.75011316  0.89362663  0.84221694    -0.77400
C2867       C  0.77583643  0.89295764  0.82584814     0.83300
N2868       N  0.77507995  0.89255906  0.79401000    -0.77300
C2869       C  0.74851465  0.89320624  0.77865922     0.83400
N2870       N  0.72284835  0.89309410  0.79545550    -0.79100
C2871       C  0.71957895  0.89121032  0.69742791     0.80900
N2872       N  0.74499591  0.88802962  0.68077578    -0.77400
C2873       C  0.77164328  0.88730472  0.69540847     0.83300
N2874       N  0.77276974  0.88913934  0.72716232    -0.77300
C2875       C  0.74732619  0.89219681  0.74414291     0.83400
N2876       N  0.72061281  0.89314938  0.72908841    -0.79100
C2877       C  0.62678104  0.97675544  0.94910018     0.80900
N2878       N  0.62500015  0.97661615  0.98085606    -0.77400
C2879       C  0.63146984  0.50316256  0.99414212     0.83300
N2880       N  0.62816551  0.52890154  0.97771697    -0.77300
C2881       C  0.62711525  0.52856366  0.94596892     0.83400
N2882       N  0.62902782  0.50222019  0.93060535    -0.79100
C2883       C  0.63487440  0.97814763  0.57251188     0.80900
N2884       N  0.63627591  0.97884018  0.54091968    -0.77400
C2885       C  0.62338259  0.50453923  0.52319298     0.83300
N2886       N  0.61940485  0.53013321  0.53967569    -0.77300
C2887       C  0.61852014  0.52943042  0.57140846     0.83400
N2888       N  0.62164950  0.50309494  0.58647363    -0.79100
C2889       C  0.97356471  0.86361233  0.94456956     0.80900
N2890       N  0.99974451  0.86715431  0.92945325    -0.77400
C2891       C  0.52511170  0.86874826  0.94686166     0.83300
N2892       N  0.52653222  0.86592661  0.97866031    -0.77300
C2893       C  0.99915079  0.86275011  0.99298389     0.83400
N2894       N  0.97320892  0.86164665  0.97631005    -0.79100
C2895       C  0.96991327  0.85206721  0.57969768     0.80900
N2896       N  0.97081215  0.85027338  0.54792948    -0.77400
C2897       C  0.99717765  0.85335567  0.53245961     0.83300
N2898       N  0.52204136  0.86046449  0.54816346    -0.77300
C2899       C  0.52058533  0.86318236  0.57999565     0.83400
N2900       N  0.99500613  0.85764849  0.59612813    -0.79100
C2901       C  0.85125895  0.51688638  0.57756350     0.80900
N2902       N  0.84879038  0.51701275  0.54584196    -0.77400
C2903       C  0.85150614  0.49115454  0.52926926     0.83300
N2904       N  0.85738175  0.96416958  0.54069183    -0.77300
C2905       C  0.85891466  0.96443961  0.57272482     0.83400
N2906       N  0.85528027  0.99040823  0.58811007    -0.79100
C2907       C  0.85061723  0.51995311  0.94325434     0.80900
N2908       N  0.85625789  0.49412970  0.92798804    -0.77400
C2909       C  0.85825630  0.96731741  0.94561595     0.83300
N2910       N  0.85393698  0.96703155  0.97731720    -0.77300
C2911       C  0.84757029  0.99295573  0.99301217     0.83400
N2912       N  0.84916437  0.52026684  0.97502959    -0.79100
C2913       C  0.95122526  0.63312020  0.57923081     0.80900
N2914       N  0.95009497  0.63420486  0.54733097    -0.77400
C2915       C  0.97579099  0.63654873  0.53045898     0.83300
N2916       N  0.50182095  0.64003963  0.54374680    -0.77300
C2917       C  0.50257694  0.64025841  0.57537213     0.83400
N2918       N  0.97775017  0.63484174  0.59411086    -0.79100
C2919       C  0.95097196  0.63571865  0.94427398     0.80900
N2920       N  0.97738038  0.63571627  0.92909195    -0.77400
C2921       C  0.50582177  0.63073166  0.94641022     0.83300
N2922       N  0.50445791  0.63128169  0.97808149    -0.77300
C2923       C  0.97634349  0.64072677  0.99233543     0.83400
N2924       N  0.95028146  0.63836166  0.97605779    -0.79100
O2925       O  0.55779861  0.62267961  0.94384703    -0.77800
C2926       C  0.62142712  0.55629077  0.92856037     0.83200
O2927       O  0.64741971  0.68165356  0.92854456    -0.78900
O2928       O  0.65539976  0.59794457  0.84268049    -0.80400
O2929       O  0.55617529  0.62070205  0.83217878    -0.80200
O2930       O  0.53499083  0.64267470  0.90249890    -0.78800
Zn2931     Zn  0.60138512  0.62049708  0.93256327     1.55700
O2932       O  0.58662866  0.58147506  0.82994158    -0.80200
Cd2933     Cd  0.56896755  0.64504151  0.87037801     1.59700
Cd2934     Cd  0.63878269  0.65994584  0.88505091     1.59600
O2935       O  0.57547829  0.68708422  0.85036983    -0.80200
O2936       O  0.60649290  0.62912892  0.88884026    -1.90700
Cd2937     Cd  0.61606545  0.59105150  0.86653003     1.59900
O2938       O  0.62467435  0.69325477  0.85471711    -0.80200
O2939       O  0.62111908  0.55605112  0.89867034    -0.78800
C2940       C  0.63691145  0.67458840  0.95531239     0.83700
C2941       C  0.53444482  0.63218372  0.93015720     0.83400
O2942       O  0.61602016  0.57985167  0.94410336    -0.77800
C2943       C  0.56756640  0.59889407  0.81747148     0.84200
O2944       O  0.62144717  0.65105362  0.95900622    -0.77900
C2945       C  0.59936164  0.70128859  0.84410503     0.84300
C2946       C  0.67583551  0.61757100  0.84398727     0.84600
O2947       O  0.67459703  0.64032543  0.86200634    -0.80300
O2948       O  0.60632286  0.58024162  0.57431279    -0.77800
C2949       C  0.53080645  0.63953965  0.59165785     0.83200
O2950       O  0.64475098  0.67916429  0.58431700    -0.78900
O2951       O  0.57630579  0.68554700  0.67569718    -0.80400
O2952       O  0.58520291  0.58157329  0.68824685    -0.80200
O2953       O  0.61614119  0.55679023  0.61893673    -0.78800
Zn2954     Zn  0.59493173  0.62129047  0.58687870     1.55700
O2955       O  0.55043784  0.61681738  0.68502286    -0.80200
Cd2956     Cd  0.61287835  0.59183460  0.65089867     1.59700
Cd2957     Cd  0.63526546  0.66126835  0.63019568     1.59600
O2958       O  0.65278998  0.59865656  0.67332806    -0.80200
O2959       O  0.60260529  0.63032459  0.62983363    -1.90700
Cd2960     Cd  0.56639401  0.64596317  0.65151923     1.59900
O2961       O  0.67062177  0.64214394  0.65519972    -0.80200
O2962       O  0.53265211  0.65022893  0.61919261    -0.78800
C2963       C  0.63200871  0.67122720  0.55883144     0.83700
C2964       C  0.61349592  0.55688236  0.58923649     0.83400
O2965       O  0.55248542  0.62696665  0.57799052    -0.77800
C2966       C  0.56455671  0.59715892  0.70046303     0.84200
O2967       O  0.61418325  0.64937899  0.55824777    -0.77900
C2968       C  0.67259928  0.61892290  0.67257853     0.84300
C2969       C  0.59913244  0.70254433  0.67528119     0.84600
O2970       O  0.62182902  0.69693797  0.65827663    -0.80300
N2971       N  0.65358005  0.69000233  0.50727321    -0.02800
C2972       C  0.63199471  0.68929063  0.52975652    -0.00200
C2973       C  0.60489319  0.69744404  0.51720254    -0.23100
C2974       C  0.60607006  0.70259397  0.98854670    -0.23300
C2975       C  0.63563512  0.69619178  0.98169676    -0.00300
H2976       H  0.58337640  0.69642726  0.52857741     0.13500
H2977       H  0.58803332  0.70424005  0.97178971     0.13500
N2978       N  0.55667299  0.58869498  0.75923458    -0.02800
C2979       C  0.56753433  0.60336037  0.73373942    -0.00200
C2980       C  0.58573199  0.62671978  0.74213220    -0.23100
C2981       C  0.58679338  0.62686709  0.77367945    -0.23300
C2982       C  0.56919209  0.60358782  0.78377124    -0.00300
H2983       H  0.59767519  0.64162770  0.72668293     0.13500
H2984       H  0.59961550  0.64209155  0.78800839     0.13500
N2985       N  0.78933802  0.74338240  0.51145746    -0.35900
N2986       N  0.73579322  0.70544571  0.51419800    -0.56500
N2987       N  0.69863025  0.75937572  0.51079486    -0.35900
N2988       N  0.75191596  0.79690197  0.51107181    -0.56500
C2989       C  0.80263027  0.71619375  0.51300437     0.27700
C2990       C  0.81093757  0.76458999  0.51210097     0.27700
C2991       C  0.67812139  0.73839734  0.51838663     0.27700
C2992       C  0.68646845  0.78649257  0.51715004     0.27700
C2993       C  0.75670200  0.68391693  0.51025667     0.36300
C2994       C  0.70878577  0.69230446  0.51044208     0.36300
C2995       C  0.77880129  0.81039241  0.50849923     0.36300
C2996       C  0.73104660  0.81858150  0.50875925     0.36300
C2997       C  0.83320936  0.72016935  0.51474037    -0.21200
C2998       C  0.83843358  0.75057523  0.51419292    -0.21200
C2999       C  0.65281754  0.75294604  0.52962889    -0.21200
C3000       C  0.65804904  0.78298550  0.52851305    -0.21200
C3001       C  0.74273133  0.65683987  0.50473815    -0.22300
C3002       C  0.71246333  0.66220488  0.50462872    -0.22300
C3003       C  0.77509027  0.84078698  0.50498251    -0.22300
C3004       C  0.74497311  0.84598988  0.50504166    -0.22300
C3005       C  0.78823731  0.68782429  0.51155007    -0.17600
C3006       C  0.80692356  0.79617383  0.50990531    -0.17600
C3007       C  0.69975104  0.81460167  0.51242359    -0.17600
C3008       C  0.68079145  0.70682913  0.51322788    -0.17600
H3009       H  0.85006866  0.70292884  0.51582789     0.15300
H3010       H  0.86009539  0.76113902  0.51481861     0.15300
H3011       H  0.63250029  0.74381803  0.53873764     0.15300
H3012       H  0.64264731  0.80027543  0.53560448     0.15300
H3013       H  0.75324925  0.63543969  0.50084028     0.13600
H3014       H  0.69513048  0.64581350  0.50092667     0.13600
H3015       H  0.79229572  0.85754312  0.50276759     0.13600
H3016       H  0.73480308  0.86772477  0.50305350     0.13600
H3017       H  0.76680172  0.74715454  0.50922050     0.26800
H3018       H  0.71896968  0.75548088  0.50005808     0.26800
O3019       O  0.85602205  0.66454124  0.69480279    -0.77800
C3020       C  0.77946062  0.60833942  0.67693734     0.83200
O3021       O  0.89576471  0.56758475  0.68385825    -0.78900
O3022       O  0.82646671  0.55977993  0.59684543    -0.80400
O3023       O  0.83472667  0.66440683  0.58073096    -0.80200
O3024       O  0.86571953  0.68793625  0.65000151    -0.78800
Zn3025     Zn  0.84433173  0.62416115  0.68202014     1.55700
O3026       O  0.80185441  0.62726396  0.58291753    -0.80200
Cd3027     Cd  0.86303134  0.65384955  0.61754610     1.59700
Cd3028     Cd  0.88661166  0.58667149  0.63902481     1.59600
O3029       O  0.90336381  0.64783606  0.59529052    -0.80200
O3030       O  0.85265809  0.61601750  0.63926328    -1.90700
Cd3031     Cd  0.81624136  0.60011273  0.61854158     1.59900
O3032       O  0.92276479  0.60632090  0.61622507    -0.80200
O3033       O  0.78121062  0.59772767  0.64942206    -0.78800
C3034       C  0.88202191  0.57428176  0.70905361     0.83700
C3035       C  0.86285427  0.68781045  0.67966594     0.83400
O3036       O  0.80160727  0.61968222  0.69091575    -0.77800
C3037       C  0.81454935  0.64839363  0.56831842     0.84200
O3038       O  0.86339841  0.59547540  0.70985094    -0.77900
C3039       C  0.92426703  0.62880389  0.59787114     0.84300
C3040       C  0.85047947  0.54454027  0.59561853     0.84600
O3041       O  0.87403268  0.55183555  0.61039554    -0.80300
O3042       O  0.80596195  0.62021311  0.82355194    -0.77800
C3043       C  0.86799355  0.68934468  0.84289057     0.83200
O3044       O  0.89793973  0.56725978  0.84087957    -0.78900
O3045       O  0.90206730  0.64894127  0.92972125    -0.80400
O3046       O  0.80118359  0.62997794  0.93563247    -0.80200
O3047       O  0.78350291  0.60155362  0.86573636    -0.78800
Zn3048     Zn  0.84898929  0.62513412  0.83644747     1.55700
O3049       O  0.83172428  0.66899074  0.93668912    -0.80200
Cd3050     Cd  0.81644865  0.60283392  0.89951895     1.59700
Cd3051     Cd  0.88776247  0.58921084  0.88358503     1.59600
O3052       O  0.82568924  0.56183035  0.92116487    -0.80200
O3053       O  0.85386177  0.61812655  0.88054399    -1.90700
Cd3054     Cd  0.86351025  0.65556500  0.90406725     1.59900
O3055       O  0.87461308  0.55573310  0.91296988    -0.80200
O3056       O  0.87011043  0.68933485  0.87254676    -0.78800
C3057       C  0.88835048  0.57380757  0.81365377     0.83700
C3058       C  0.78287984  0.61037394  0.83739579     0.83400
O3059       O  0.86094562  0.66635225  0.82721282    -0.77800
C3060       C  0.81216861  0.65259971  0.94955154     0.84200
O3061       O  0.87218209  0.59679517  0.80924090    -0.77900
C3062       C  0.85011423  0.54759326  0.92518331     0.84300
C3063       C  0.92384206  0.63108077  0.92598999     0.84600
O3064       O  0.92331332  0.60966993  0.90623608    -0.80300
N3065       N  0.90369435  0.55652104  0.76033405    -0.02800
C3066       C  0.88246296  0.55567137  0.73751213    -0.00200
C3067       C  0.85530707  0.54757413  0.74997175    -0.23100
C3068       C  0.85965109  0.54307035  0.78103751    -0.23300
C3069       C  0.88864994  0.55157724  0.78775676    -0.00300
H3070       H  0.83392258  0.54795471  0.73825033     0.13500
H3071       H  0.84165747  0.54089465  0.79775590     0.13500
N3072       N  0.80652301  0.66109687  0.51036616    -0.02800
C3073       C  0.81622033  0.64399932  0.53467390    -0.00200
C3074       C  0.83111330  0.61896492  0.52440785    -0.23100
C3075       C  0.83076480  0.62521812  0.99349561    -0.23300
C3076       C  0.81431376  0.64933778  0.98345194    -0.00300
H3077       H  0.84137753  0.60180668  0.53861149     0.13500
H3078       H  0.84123711  0.60825389  0.97918183     0.13500
O3079       O  0.67497246  0.87615590  0.83246158    -0.77800
C3080       C  0.60883488  0.80857186  0.84354557     0.83200
O3081       O  0.58723712  0.93300594  0.84041887    -0.78900
O3082       O  0.57276985  0.85249636  0.93082417    -0.80400
O3083       O  0.67680443  0.86560868  0.94030393    -0.80200
O3084       O  0.69489534  0.90032608  0.87294656    -0.78800
Zn3085     Zn  0.63240103  0.87071175  0.84257361     1.55700
O3086       O  0.64184838  0.83039319  0.94169982    -0.80200
Cd3087     Cd  0.66164020  0.89467407  0.90604507     1.59700
Cd3088     Cd  0.59173811  0.91072947  0.88480972     1.59600
O3089       O  0.65188229  0.93386835  0.93011976    -0.80200
O3090       O  0.62447991  0.87991726  0.88518567    -1.90700
Cd3091     Cd  0.61188357  0.84284606  0.90660744     1.59900
O3092       O  0.60504292  0.94322950  0.91500936    -0.80200
O3093       O  0.60536642  0.80896664  0.87325345    -0.78800
C3094       C  0.60031463  0.92418209  0.81552907     0.83700
C3095       C  0.69638651  0.89006701  0.84518165     0.83400
O3096       O  0.61851283  0.83102626  0.82874991    -0.77800
C3097       C  0.66207535  0.84585028  0.95500552     0.84200
O3098       O  0.61492728  0.90007180  0.81515612    -0.77900
C3099       C  0.62807663  0.94939859  0.93102098     0.84300
C3100       C  0.55220369  0.87191115  0.92759106     0.84600
O3101       O  0.55392514  0.89312875  0.90753169    -0.80300
O3102       O  0.57093971  0.87556963  0.58294367    -0.77800
C3103       C  0.63332811  0.95022008  0.58939892     0.83200
O3104       O  0.67483986  0.84761422  0.59630812    -0.78900
O3105       O  0.67682136  0.91340099  0.67566757    -0.80400
O3106       O  0.58155968  0.90393789  0.69981808    -0.80200
O3107       O  0.54738781  0.87012223  0.62851761    -0.78800
Zn3108     Zn  0.61225201  0.88612587  0.59239080     1.55700
O3109       O  0.60897401  0.94168825  0.68249672    -0.80200
Cd3110     Cd  0.58366573  0.87362853  0.66106815     1.59700
Cd3111     Cd  0.65130483  0.85069113  0.63935211     1.59600
O3112       O  0.59058201  0.83186852  0.68202663    -0.80200
O3113       O  0.62042368  0.88251197  0.63631608    -1.90700
Cd3114     Cd  0.63724548  0.92048034  0.65223272     1.59900
O3115       O  0.63161339  0.81283514  0.65948687    -0.80200
O3116       O  0.64325722  0.95000337  0.61712784    -0.78800
C3117       C  0.66381551  0.85233388  0.56929180     0.83700
C3118       C  0.54758474  0.86997437  0.59840341     0.83400
O3119       O  0.62028903  0.92787926  0.57718235    -0.77800
C3120       C  0.59484673  0.92889869  0.70431207     0.84200
O3121       O  0.63645344  0.85871129  0.56607970    -0.77900
C3122       C  0.60929346  0.81065167  0.67807459     0.84300
C3123       C  0.69142890  0.88958259  0.68083017     0.84600
O3124       O  0.68368120  0.86434724  0.67000364    -0.80300
N3125       N  0.68172159  0.84129130  0.51540214    -0.02800
C3126       C  0.68246330  0.85873680  0.54158846    -0.00200
C3127       C  0.68020155  0.88840805  0.53270581    -0.23100
C3128       C  0.63554814  0.87240860  0.99546161    -0.23300
C3129       C  0.65738012  0.85206875  0.98816213    -0.00300
H3130       H  0.67719372  0.90730486  0.54816304     0.13500
H3131       H  0.62138750  0.88451923  0.97935457     0.13500
N3132       N  0.58601206  0.94160827  0.76199366    -0.02800
C3133       C  0.60350294  0.93773803  0.73634922    -0.00200
C3134       C  0.63311317  0.93799988  0.74459153    -0.23100
C3135       C  0.63402305  0.94203703  0.77613401    -0.23300
C3136       C  0.60480037  0.94255742  0.78702835    -0.00300
H3137       H  0.65203055  0.93385903  0.72955543     0.13500
H3138       H  0.65392194  0.93949440  0.79022924     0.13500
O3139       O  0.82256516  0.87718326  0.69267844    -0.77800
C3140       C  0.87134074  0.79498012  0.67936781     0.83200
O3141       O  0.92449473  0.90352918  0.68063976    -0.78900
O3142       O  0.92536815  0.83159003  0.59945157    -0.80400
O3143       O  0.82596983  0.84962288  0.57698741    -0.80200
O3144       O  0.79831615  0.88168227  0.64736762    -0.78800
Zn3145     Zn  0.86151425  0.86095070  0.68076304     1.55700
O3146       O  0.85744071  0.81193865  0.58478055    -0.80200
Cd3147     Cd  0.83356571  0.87801797  0.61487218     1.59700
Cd3148     Cd  0.90266317  0.89747400  0.63569046     1.59600
O3149       O  0.84174626  0.91805430  0.59172747    -0.80200
O3150       O  0.87054056  0.86639910  0.63760022    -1.90700
Cd3151     Cd  0.88404181  0.82742656  0.61986748     1.59900
O3152       O  0.88607614  0.93414110  0.60914612    -0.80200
O3153       O  0.88331112  0.79475655  0.65254558    -0.78800
C3154       C  0.91695603  0.89090433  0.70636989     0.83700
C3155       C  0.79891271  0.88212724  0.67733726     0.83400
O3156       O  0.86069361  0.81836251  0.69166351    -0.77800
C3157       C  0.84029386  0.82684973  0.56725529     0.84200
O3158       O  0.89293719  0.87621151  0.70830586    -0.77900
C3159       C  0.86286687  0.93707838  0.59170939     0.84300
C3160       C  0.94182236  0.85444873  0.59620690     0.84600
O3161       O  0.93557792  0.87972429  0.60806899    -0.80300
O3162       O  0.86527249  0.81983187  0.82987931    -0.77800
C3163       C  0.80357442  0.88732354  0.84268389     0.83200
O3164       O  0.92681128  0.90730739  0.83831966    -0.78900
O3165       O  0.84537365  0.91839144  0.93086483    -0.80400
O3166       O  0.86269383  0.81777626  0.93811482    -0.80200
O3167       O  0.88987807  0.79799391  0.86897517    -0.78800
Zn3168     Zn  0.86504938  0.86292329  0.83964900     1.55700
O3169       O  0.82369915  0.84852545  0.93826877    -0.80200
Cd3170     Cd  0.88960227  0.83181205  0.90174946     1.59700
Cd3171     Cd  0.90498379  0.90230554  0.88349895     1.59600
O3172       O  0.93076277  0.84029398  0.92299556    -0.80200
O3173       O  0.87451193  0.86938039  0.88265168    -1.90700
Cd3174     Cd  0.83716948  0.88009532  0.90517863     1.59900
O3175       O  0.93871979  0.88869440  0.91323394    -0.80200
O3176       O  0.80367993  0.88805381  0.87253412    -0.78800
C3177       C  0.91946342  0.89359255  0.81311321     0.83700
C3178       C  0.87723406  0.79708588  0.84231250     0.83400
O3179       O  0.82628087  0.87969755  0.82700692    -0.77800
C3180       C  0.84015105  0.82922206  0.95167123     0.84200
O3181       O  0.89584005  0.87825247  0.81189485    -0.77900
C3182       C  0.94594614  0.86418850  0.92628725     0.84300
C3183       C  0.86364834  0.93985716  0.92736734     0.84600
O3184       O  0.88498217  0.93900844  0.90724154    -0.80300
N3185       N  0.93720618  0.90634982  0.75902543    -0.02800
C3186       C  0.93702373  0.88744838  0.73401223    -0.00200
C3187       C  0.94096407  0.85862009  0.74474754    -0.23100
C3188       C  0.94298590  0.85988160  0.77660511    -0.23300
C3189       C  0.93940203  0.88941139  0.78546443    -0.00300
H3190       H  0.93813446  0.83836423  0.73129490     0.13500
H3191       H  0.94158653  0.84067219  0.79185752     0.13500
N3192       N  0.83326519  0.81487868  0.50941705    -0.02800
C3193       C  0.84813286  0.82645370  0.53429312    -0.00200
C3194       C  0.87265600  0.84266797  0.52504849    -0.23100
C3195       C  0.86752292  0.84872917  0.99534451    -0.23300
C3196       C  0.84362181  0.83188828  0.98549153    -0.00300
H3197       H  0.88786551  0.85496749  0.53987607     0.13500
H3198       H  0.88398587  0.85971461  0.98086883     0.13500
N3199       N  0.98667528  0.54315312  0.75456564    -0.35900
N3200       N  0.94920733  0.98874404  0.75756064    -0.56500
N3201       N  0.00500915  0.95487794  0.75658506    -0.35900
N3202       N  0.53883906  0.01017589  0.76004361    -0.56500
C3203       C  0.95907454  0.55518340  0.75827650     0.27700
C3204       C  0.50656815  0.56527026  0.76344111     0.27700
C3205       C  0.98557039  0.93181291  0.75575688     0.27700
C3206       C  0.53129360  0.94360682  0.76398454     0.27700
C3207       C  0.92933771  0.50808549  0.75197476     0.36300
C3208       C  0.93782716  0.96081030  0.75948642     0.36300
C3209       C  0.55273215  0.53442984  0.75524009     0.36300
C3210       C  0.56139613  0.99019013  0.75830428     0.36300
C3211       C  0.96195147  0.58530225  0.76469881    -0.21200
C3212       C  0.49231696  0.59106307  0.77329944    -0.21200
C3213       C  0.00173166  0.90526998  0.75503948    -0.21200
C3214       C  0.52875696  0.91385519  0.77162832    -0.21200
C3215       C  0.90394727  0.49224118  0.74322578    -0.22300
C3216       C  0.90762106  0.96186122  0.76453712    -0.22300
C3217       C  0.58315121  0.53150208  0.75094439    -0.22300
C3218       C  0.58826849  0.00526153  0.75516730    -0.22300
C3219       C  0.93133605  0.53994375  0.75547643    -0.17600
C3220       C  0.53809646  0.56219924  0.75945099    -0.17600
C3221       C  0.55868103  0.95859406  0.76094322    -0.17600
C3222       C  0.95378393  0.93387373  0.75720061    -0.17600
H3223       H  0.94413528  0.60118372  0.76845663     0.15300
H3224       H  0.50272346  0.61188694  0.77990924     0.15300
H3225       H  0.99369043  0.88272031  0.75446338     0.15300
H3226       H  0.54663586  0.89831895  0.77649830     0.15300
H3227       H  0.88290042  0.50017896  0.73474853     0.13600
H3228       H  0.89242188  0.94329144  0.76711890     0.13600
H3229       H  0.59953401  0.54912337  0.74937496     0.13600
H3230       H  0.61043973  0.99609497  0.75354885     0.13600
H3231       H  0.99132298  0.52140596  0.74815871     0.26800
H3232       H  0.99974741  0.97642817  0.75768318     0.26800
loop_ 
_geom_bond_atom_site_label_1 
_geom_bond_atom_site_label_2 
_geom_bond_distance 
_geom_bond_site_symmetry_2 
_ccdc_geom_bond_type 
C1            N2   1.355       .  A
C1            N6   1.354       .  A
C1          C350   1.452       .  S
N2            C3   1.355       .  A
C3            N4   1.360       .  A
C3          C215   1.465       .  S
N4            C5   1.360       .  A
C5            N6   1.354       .  A
C5           C11   1.463       .  S
C7            N8   1.355       .  A
C7           N12   1.358       .  A
C7          C312   1.457       .  S
N8            C9   1.353       .  A
C9           N10   1.356       .  A
C9          C207   1.458       .  S
N10          C11   1.355       .  A
C11          N12   1.359       .  A
C13          N14   1.350       .  A
C13          N18   1.362       .  A
C13         C118   1.448       .  S
N14          C15   1.349       .  A
C15          N16   1.362       .  A
C15         C230   1.467       .  S
N16          C17   1.365       .  A
C17          N18   1.360       .  A
C17          C21   1.484       .  S
C19          N20   1.370       .  A
C19          N24   1.356       .  A
C19         C140   1.477       .  S
N20          C21   1.369       .  A
C21          N22   1.356       .  A
N22          C23   1.355       .  A
C23          N24   1.356       .  A
C23         C192   1.460       .  S
C25          N26   1.362       .  A
C25          N30   1.350       .  A
C25         C117   1.445       .  S
N26          C27   1.361       .  A
C27          N28   1.369       .  A
C27          C35   1.498       .  S
N28          C29   1.372       .  A
C29          N30   1.346       .  A
C29         C252   1.477       .  S
C31          N32   1.354       .  A
C31          N36   1.368       .  A
C31         C141   1.483       .  S
N32          C33   1.356       .  A
C33          N34   1.364       .  A
C33         C294   1.473       .  S
N34          C35   1.366       .  A
C35          N36   1.372       .  A
C37          N38   1.357       .  A
C37          N42   1.355       .  A
C37         C267   1.451       .  S
N38          C39   1.351       .  A
C39          N40   1.364       .  A
C39         C335   1.474       .  S
N40          C41   1.364       .  A
C41          N42   1.356       .  A
C41          C47   1.473       .  S
C43          N44   1.346       .  A
C43          N48   1.361       .  A
C43         C295   1.446       .  S
N44          C45   1.349       .  A
C45          N46   1.358       .  A
C45         C327   1.449       .  S
N46          C47   1.356       .  A
C47          N48   1.362       .  A
C49          N50   1.359       .  A
C49         N862   1.349       .  A
C49         C271   1.446       .  S
N50         C859   1.361       .  A
C51          N52   1.360       .  A
C51         N858   1.358   1_545  A
C51         C461   1.469       .  S
N52          C53   1.362       .  A
C53          N54   1.349       .  A
C53          C98   1.456       .  S
N54         C857   1.348   1_545  A
C55          N56   1.360       .  A
C55         N868   1.351       .  A
C55         C275   1.450       .  S
N56         C865   1.357       .  A
C57          N58   1.356       .  A
C57         N864   1.357   1_545  A
C57         C455   1.464   1_554  S
N58          C59   1.359       .  A
C59          N60   1.351       .  A
C59         C136   1.455       .  S
N60         C863   1.353   1_545  A
C61          N62   1.354       .  A
C61          N66   1.361       .  A
C61         C354   1.462       .  S
N62        C1679   1.353       .  A
C63          N64   1.364       .  A
C63        N1678   1.352   1_455  A
C63         C272   1.467       .  S
N64        C1681   1.365   1_455  A
C65          N66   1.364       .  A
C65        N1680   1.370       .  A
C65         C473   1.495       .  S
C67          N68   1.361       .  A
C67          N72   1.355       .  A
C67         C332   1.466       .  S
N68          C69   1.365       .  A
C69        N1686   1.370       .  A
C69         C469   1.499   1_554  S
N70          C71   1.376       .  A
N70        C1685   1.376   1_455  A
C71        N1688   1.352   1_455  A
C71         C290   1.492       .  S
N72        C1687   1.355       .  A
C73          N74   1.364       .  A
C73         N886   1.358   1_545  A
C73         C212   1.475       .  S
N74          C75   1.367   1_545  A
C75         N884   1.371       .  A
C75        C1295   1.506   1_554  S
N76          C77   1.370       .  A
N76         C883   1.370       .  A
C77          N78   1.349       .  A
C77         C331   1.473       .  S
N78         C881   1.353       .  A
C79          N80   1.354   1_545  A
C79          N84   1.369       .  A
C79         C234   1.475       .  S
N80         C889   1.352       .  A
C81          N82   1.374       .  A
C81         N888   1.349       .  A
C81         C355   1.482       .  S
N82          C83   1.376       .  A
C83         N892   1.368       .  A
C83        C1287   1.510       .  S
N84         C891   1.371   1_545  A
C85          N86   1.365       .  A
C85          N90   1.353       .  A
C85         C211   1.466       .  S
N86          C87   1.364       .  A
C87        N1704   1.359       .  A
C87         C499   1.479   1_554  S
N88          C89   1.357       .  A
N88        C1703   1.359   1_455  A
C89        N1706   1.348   1_455  A
C89         C121   1.451       .  S
N90        C1705   1.355       .  A
C91          N92   1.355       .  A
C91          N96   1.367       .  A
C91         C235   1.465       .  S
N92        C1709   1.353       .  A
C93          N94   1.351       .  A
C93        N1708   1.347   1_455  A
C93         C113   1.447       .  S
N94        C1711   1.357   1_455  A
C95          N96   1.366       .  A
C95        N1710   1.359       .  A
C95         C491   1.477       .  S
O97         C113   1.271       .  A
O97        Zn103   1.993       .  S
C98         O114   1.269       .  A
C98         O111   1.279       .  A
O99         C112   1.276       .  A
O99        Cd106   2.123       .  S
O100        C118   1.271       .  A
O100       Cd109   2.051       .  S
O101        C115   1.266       .  A
O101       Cd105   2.038       .  S
O102        C113   1.270       .  A
O102       Cd105   2.025       .  S
Zn103       O114   1.971       .  S
Zn103       O116   1.995       .  S
Zn103       O108   1.912       .  S
O104        C115   1.274       .  A
O104       Cd109   2.085       .  S
Cd105       O107   2.053       .  S
Cd105       O108   1.989       .  S
Cd106       O110   2.047       .  S
Cd106       O119   2.058       .  S
Cd106       O108   1.995       .  S
O107        C117   1.272       .  A
O108       Cd109   1.988       .  S
Cd109       O111   2.071       .  S
O110        C117   1.272       .  A
C112        C147   1.489       .  S
C112        O116   1.274       .  A
C115        C154   1.456       .  S
C118        O119   1.275       .  A
O120        C136   1.266       .  A
O120       Zn126   1.961       .  S
C121        O137   1.267       .  A
C121        O134   1.275       .  A
O122        C135   1.286       .  A
O122       Cd129   2.183       .  S
O123        C141   1.278       .  A
O123       Cd132   2.096       .  S
O124        C138   1.271       .  A
O124       Cd128   2.073       .  S
O125        C136   1.275       .  A
O125       Cd128   2.071       .  S
Zn126       O137   1.967       .  S
Zn126       O139   1.934       .  S
Zn126       O131   1.907       .  S
O127        C138   1.270       .  A
O127       Cd132   2.068       .  S
Cd128       O130   2.076       .  S
Cd128       O131   2.003       .  S
Cd129       O133   2.125       .  S
Cd129       O142   2.120       .  S
Cd129       O131   2.018       .  S
O130        C140   1.276       .  A
O131       Cd132   1.995       .  S
Cd132       O134   2.066       .  S
O133        C140   1.286       .  A
C135        C144   1.486       .  S
C135        O139   1.263       .  A
C138        C151   1.449       .  S
C141        O142   1.284       .  A
N143        C144   1.367       .  A
N143        C551   1.378   1_554  A
N143        C180   1.460       .  S
C144        C145   1.378       .  A
C145        C550   1.361   1_554  A
C145        H148   1.083       .  S
C146        C147   1.387       .  A
C146        C549   1.359       .  A
C146        H149   1.084       .  S
C147        N547   1.376       .  A
N150        C154   1.359       .  A
N150        C151   1.360       .  A
N150        C392   1.448       .  S
C151        C152   1.377       .  A
C152        C153   1.356       .  A
C152        H155   1.082       .  S
C153        C154   1.379       .  A
C153        H156   1.083       .  S
N157        C162   1.364       .  A
N157        C161   1.366       .  A
N157        H189   1.033       .  S
N158        C165   1.356       .  A
N158        C166   1.359       .  A
N159        C164   1.358       .  A
N159        C163   1.358       .  A
N159        H190   1.038       .  S
N160        C167   1.360       .  A
N160        C168   1.362       .  A
C161        C169   1.385       .  A
C161        C177   1.437       .  A
C162        C178   1.440       .  A
C162        C170   1.388       .  A
C163        C171   1.393       .  A
C163        C180   1.432       .  A
C164        C179   1.411       .  A
C164        C172   1.378       .  A
C165        C177   1.427       .  A
C165        C173   1.388       .  A
C166        C180   1.418       .  A
C166        C174   1.381       .  A
C167        C175   1.388       .  A
C167        C178   1.436       .  A
C168        C176   1.384       .  A
C168        C179   1.431       .  A
C169        C170   1.386       .  A
C169        H181   1.082       .  S
C170        H182   1.082       .  S
C171        C172   1.363       .  A
C171        H183   1.074       .  S
C172        H184   1.080       .  S
C173        C174   1.380       .  A
C173        H185   1.082   1_554  S
C174        H186   1.082   1_554  S
C175        C176   1.388       .  A
C175        H187   1.082       .  S
C176        H188   1.082       .  S
C177        N244   1.462       .  S
C178        N364   1.466       .  S
C179        N297   1.459       .  S
O191        C207   1.271       .  A
O191       Zn197   1.988       .  S
C192        O208   1.273       .  A
C192        O205   1.274       .  A
O193        C206   1.278       .  A
O193       Cd200   2.140       .  S
O194        C212   1.281       .  A
O194       Cd203   2.113       .  S
O195        C209   1.273       .  A
O195       Cd199   2.083       .  S
O196        C207   1.275       .  A
O196       Cd199   2.066       .  S
Zn197       O208   2.008       .  S
Zn197       O210   1.988       .  S
Zn197       O202   1.914       .  S
O198        C209   1.274       .  A
O198       Cd203   2.073       .  S
Cd199       O201   2.068       .  S
Cd199       O202   2.004       .  S
Cd200       O204   2.100       .  S
Cd200       O213   2.074       .  S
Cd200       O202   2.020       .  S
O201        C211   1.274       .  A
O202       Cd203   1.997       .  S
Cd203       O205   2.061       .  S
O204        C211   1.282       .  A
C206        C238   1.489       .  S
C206        O210   1.272       .  A
C209        C245   1.455       .  S
C212        O213   1.275       .  A
O214        C230   1.273       .  A
O214       Zn220   2.011       .  S
C215        O231   1.272       .  A
C215        O228   1.276       .  A
O216        C229   1.280       .  A
O216       Cd223   2.144       .  S
O217        C235   1.274       .  A
O217       Cd226   2.071       .  S
O218        C232   1.274       .  A
O218       Cd222   2.075       .  S
O219        C230   1.280       .  A
O219       Cd222   2.084       .  S
Zn220       O231   2.002       .  S
Zn220       O233   1.972       .  S
Zn220       O225   1.926       .  S
O221        C232   1.271       .  A
O221       Cd226   2.074       .  S
Cd222       O224   2.107       .  S
Cd222       O225   2.004       .  S
Cd223       O227   2.079       .  S
Cd223       O236   2.092       .  S
Cd223       O225   2.011       .  S
O224        C234   1.279       .  A
O225       Cd226   1.999       .  S
Cd226       O228   2.075       .  S
O227        C234   1.276       .  A
C229        C241   1.486       .  S
C229        O233   1.270       .  A
C232        C248   1.459       .  S
C235        O236   1.281       .  A
N237        C241   1.373       .  A
N237        C238   1.372       .  A
N237        C391   1.462       .  S
C238        C239   1.384       .  A
C239        C240   1.359       .  A
C239        H242   1.084       .  S
C240        C241   1.384       .  A
C240        H243   1.084       .  S
N244        C245   1.370       .  A
N244        C652   1.370   1_554  A
C245        C246   1.377       .  A
C246        C651   1.344   1_554  A
C246        H249   1.084       .  S
C247        C248   1.379       .  A
C247        C650   1.355       .  A
C247        H250   1.083       .  S
C248        N648   1.365       .  A
O251        C267   1.274       .  A
O251       Zn257   2.018       .  S
C252        O268   1.265       .  A
C252        O265   1.292       .  A
O253        C266   1.279       .  A
O253       Cd260   2.137       .  S
O254        C272   1.279       .  A
O254       Cd263   2.092       .  S
O255        C269   1.268       .  A
O255       Cd259   2.023       .  S
O256        C267   1.268       .  A
O256       Cd259   2.014       .  S
Zn257       O268   1.952       .  S
Zn257       O270   1.999       .  S
Zn257       O262   1.923       .  S
O258        C269   1.286       .  A
O258       Cd263   2.170       .  S
Cd259       O261   2.058       .  S
Cd259       O262   1.969       .  S
Cd260       O264   2.048       .  S
Cd260       O273   2.082       .  S
Cd260       O262   1.979       .  S
O261        C271   1.272       .  A
O262       Cd263   2.001       .  S
Cd263       O265   2.153       .  S
O264        C271   1.270       .  A
C266        C308   1.486       .  S
C266        O270   1.269       .  A
C269        C301   1.489       .  S
C272        O273   1.282       .  A
O274        C290   1.279       .  A
O274       Zn280   2.024       .  S
C275        O291   1.264       .  A
C275        O288   1.273       .  A
O276        C289   1.274       .  A
O276       Cd283   2.160       .  S
O277        C295   1.271       .  A
O277       Cd286   2.033       .  S
O278        C292   1.292       .  A
O278       Cd282   2.191       .  S
O279        C290   1.297       .  A
O279       Cd282   2.161       .  S
Zn280       O291   1.952       .  S
Zn280       O293   1.999       .  S
Zn280       O285   1.858       .  S
O281        C292   1.268       .  A
O281       Cd286   2.014       .  S
Cd282       O284   2.120       .  S
Cd282       O285   1.971       .  S
Cd283       O287   2.064       .  S
Cd283       O296   2.075       .  S
Cd283       O285   2.024       .  S
O284        C294   1.282       .  A
O285       Cd286   1.957       .  S
Cd286       O288   2.073       .  S
O287        C294   1.277       .  A
C289        C298   1.475       .  S
C289        O293   1.256       .  A
C292        C305   1.493       .  S
C295        O296   1.278       .  A
N297        C298   1.374       .  A
N297        C705   1.371   1_554  A
C298        C299   1.383       .  A
C299        C704   1.347   1_554  A
C299        H302   1.082       .  S
C300        C301   1.379       .  A
C300        C703   1.360       .  A
C300        H303   1.083       .  S
C301        N701   1.365       .  A
N304        C308   1.369       .  A
N304        C305   1.358       .  A
N304        C393   1.445       .  S
C305        C306   1.380       .  A
C306        C307   1.367       .  A
C306        H309   1.083       .  S
C307        C308   1.388       .  A
C307        H310   1.084       .  S
O311        C327   1.266       .  A
O311       Zn317   1.960       .  S
C312        O328   1.272       .  A
C312        O325   1.273       .  A
O313        C326   1.280       .  A
O313       Cd320   2.154       .  S
O314        C332   1.278       .  A
O314       Cd323   2.098       .  S
O315        C329   1.271       .  A
O315       Cd319   2.075       .  S
O316        C327   1.275       .  A
O316       Cd319   2.059       .  S
Zn317       O328   2.001       .  S
Zn317       O330   1.995       .  S
Zn317       O322   1.931       .  S
O318        C329   1.273       .  A
O318       Cd323   2.080       .  S
Cd319       O321   2.068       .  S
Cd319       O322   1.995       .  S
Cd320       O324   2.121       .  S
Cd320       O333   2.061       .  S
Cd320       O322   2.003       .  S
O321        C331   1.275       .  A
O322       Cd323   1.991       .  S
Cd323       O325   2.050       .  S
O324        C331   1.287       .  A
C326        C358   1.490       .  S
C326        O330   1.268       .  A
C329        C365   1.454       .  S
C332        O333   1.273       .  A
O334        C350   1.272       .  A
O334       Zn340   1.995       .  S
C335        O351   1.268       .  A
C335        O348   1.282       .  A
O336        C349   1.282       .  A
O336       Cd343   2.157       .  S
O337        C355   1.277       .  A
O337       Cd346   2.084       .  S
O338        C352   1.268       .  A
O338       Cd342   2.057       .  S
O339        C350   1.271       .  A
O339       Cd342   2.046       .  S
Zn340       O351   1.983       .  S
Zn340       O353   1.981       .  S
Zn340       O345   1.924       .  S
O341        C352   1.274       .  A
O341       Cd346   2.079       .  S
Cd342       O344   2.082       .  S
Cd342       O345   2.008       .  S
Cd343       O347   2.063       .  S
Cd343       O356   2.130       .  S
Cd343       O345   2.007       .  S
O344        C354   1.275       .  A
O345       Cd346   2.002       .  S
Cd346       O348   2.114       .  S
O347        C354   1.273       .  A
C349        C361   1.487       .  S
C349        O353   1.267       .  A
C352        C368   1.455       .  S
C355        O356   1.288       .  A
N357        C361   1.363       .  A
N357        C358   1.365       .  A
N357        C394   1.445       .  S
C358        C359   1.384       .  A
C359        C360   1.369       .  A
C359        H362   1.083       .  S
C360        C361   1.382       .  A
C360        H363   1.083       .  S
N364        C365   1.372       .  A
N364        C772   1.373   1_554  A
C365        C366   1.377       .  A
C366        C771   1.342   1_554  A
C366        H369   1.084       .  S
C367        C368   1.378       .  A
C367        C770   1.358       .  A
C367        H370   1.083       .  S
C368        N768   1.359       .  A
N371        C375   1.362       .  A
N371       C1992   1.357       .  A
N371        H403   1.032       .  S
N372        C380   1.356       .  A
N372       C1187   1.352       .  A
N373        C377   1.353       .  A
N373       C1994   1.355       .  A
N373        H404   1.034       .  S
N374        C382   1.355       .  A
N374       C1189   1.355       .  A
C375        C383   1.384       .  A
C375        C391   1.427       .  A
C376       N1987   1.358   1_455  A
C376        C392   1.429       .  A
C376        C384   1.387   1_455  A
C377        C385   1.392       .  A
C377        C394   1.426       .  A
C378       N1989   1.354       .  A
C378        C393   1.406       .  A
C378        C386   1.378       .  A
C379       N1180   1.355   1_545  A
C379        C391   1.441       .  A
C379        C387   1.394   1_545  A
C380        C394   1.404       .  A
C380        C388   1.373       .  A
C381       N1182   1.354       .  A
C381        C389   1.383       .  A
C381        C392   1.417       .  A
C382        C390   1.390       .  A
C382        C393   1.431       .  A
C383       C2000   1.383       .  A
C383        H395   1.082       .  S
C384       C1999   1.384       .  A
C384        H396   1.082       .  S
C385       C2002   1.371       .  A
C385        H397   1.077       .  S
C386       C2001   1.368   1_455  A
C386        H398   1.083       .  S
C387       C1196   1.364       .  A
C387        H399   1.068   1_565  S
C388       C1195   1.363       .  A
C388        H400   1.082       .  S
C389       C1198   1.373       .  A
C389        H401   1.082       .  S
C390       C1197   1.376       .  A
C390        H402   1.080       .  S
C405        N406   1.354       .  A
C405        N410   1.357       .  A
C405        C754   1.456       .  S
N406        C407   1.354       .  A
C407        N408   1.359       .  A
C407        C619   1.457       .  S
N408        C409   1.356       .  A
C409        N410   1.357       .  A
C409        C415   1.468       .  S
C411        N412   1.351       .  A
C411        N416   1.356       .  A
C411        C716   1.450       .  S
N412        C413   1.350       .  A
C413        N414   1.361       .  A
C413        C611   1.459       .  S
N414        C415   1.360       .  A
C415        N416   1.356       .  A
C417        N418   1.355       .  A
C417        N422   1.367       .  A
C417        C522   1.467       .  S
N418        C419   1.355       .  A
C419        N420   1.364       .  A
C419        C634   1.476       .  S
N420        C421   1.366       .  A
C421        N422   1.365       .  A
C421        C425   1.497       .  S
C423        N424   1.372       .  A
C423        N428   1.347       .  A
C423        C544   1.467       .  S
N424        C425   1.372       .  A
C425        N426   1.363       .  A
N426        C427   1.361       .  A
C427        N428   1.346       .  A
C427        C596   1.460       .  S
C429        N430   1.367       .  A
C429        N434   1.349       .  A
C429        C521   1.455       .  S
N430        C431   1.368       .  A
C431        N432   1.371       .  A
C431        C439   1.505       .  S
N432        C433   1.370       .  A
C433        N434   1.346       .  A
C433        C656   1.477       .  S
C435        N436   1.351       .  A
C435        N440   1.370       .  A
C435        C545   1.476       .  S
N436        C437   1.352       .  A
C437        N438   1.366       .  A
C437        C698   1.470       .  S
N438        C439   1.368       .  A
C439        N440   1.372       .  A
C441        N442   1.356       .  A
C441        N446   1.361       .  A
C441        C671   1.465       .  S
N442        C443   1.355       .  A
C443        N444   1.360       .  A
C443        C739   1.465       .  S
N444        C445   1.359       .  A
C445        N446   1.361       .  A
C445        C451   1.477       .  S
C447        N448   1.349       .  A
C447        N452   1.358       .  A
C447        C699   1.440       .  S
N448        C449   1.347       .  A
C449        N450   1.364       .  A
C449        C731   1.465       .  S
N450        C451   1.364       .  A
C451        N452   1.360       .  A
C453        N454   1.364       .  A
C453       N1266   1.358       .  A
C453        C675   1.472       .  S
N454       C1263   1.367       .  A
C455       N1262   1.355   1_545  A
C455        N456   1.361       .  A
N456        C457   1.362       .  A
C457        N458   1.346       .  A
C457        C502   1.455       .  S
N458       C1261   1.347   1_545  A
C459        N460   1.356       .  A
C459       N1272   1.357       .  A
C459        C679   1.460       .  S
N460       C1269   1.358       .  A
C461       N1268   1.357   1_545  A
C461        N462   1.359       .  A
N462        C463   1.362       .  A
C463        N464   1.351       .  A
C463        C540   1.469       .  S
N464       C1267   1.358   1_545  A
C465        N466   1.353       .  A
C465        N470   1.363       .  A
C465        C758   1.471       .  S
N466       C2083   1.353       .  A
C467       N2082   1.352   1_455  A
C467        N468   1.367       .  A
C467        C676   1.473       .  S
N468       C2085   1.366   1_455  A
C469       N2084   1.370       .  A
C469        N470   1.367       .  A
C471        N472   1.363       .  A
C471        N476   1.356       .  A
C471        C736   1.463       .  S
N472        C473   1.365       .  A
C473       N2090   1.364       .  A
N474       C2089   1.366   1_455  A
N474        C475   1.368       .  A
C475       N2092   1.345   1_455  A
C475        C694   1.465       .  S
N476       C2091   1.352       .  A
C477        N478   1.371       .  A
C477       N1290   1.354   1_545  A
C477        C616   1.479       .  S
N478        C479   1.374   1_545  A
C479       N1288   1.372       .  A
C479        C891   1.514       .  S
N480       C1287   1.369       .  A
N480        C481   1.369       .  A
C481        N482   1.353       .  A
C481        C735   1.477       .  S
N482       C1285   1.355       .  A
C483        N484   1.353   1_545  A
C483        N488   1.366       .  A
C483        C638   1.471       .  S
N484       C1293   1.350       .  A
C485       N1292   1.349       .  A
C485        N486   1.370       .  A
C485        C759   1.476       .  S
N486        C487   1.371       .  A
C487       N1296   1.368       .  A
C487        C883   1.502   1_556  S
N488       C1295   1.370   1_545  A
C489        N490   1.367       .  A
C489        N494   1.350       .  A
C489        C615   1.453       .  S
N490        C491   1.363       .  A
C491       N2108   1.358       .  A
N492       C2107   1.359   1_455  A
N492        C493   1.353       .  A
C493       N2110   1.352   1_455  A
C493        C525   1.456       .  S
N494       C2109   1.350       .  A
C495        N496   1.352       .  A
C495        N500   1.365       .  A
C495        C639   1.464       .  S
N496       C2113   1.352       .  A
C497       N2112   1.351   1_455  A
C497        N498   1.357       .  A
C497        C517   1.456       .  S
N498       C2115   1.361   1_455  A
C499       N2114   1.362       .  A
C499        N500   1.364       .  A
O501        C517   1.272       .  A
O501       Zn507   2.009       .  S
C502        O518   1.266       .  A
C502        O515   1.282       .  A
O503        C516   1.280       .  A
O503       Cd510   2.141       .  S
O504        C522   1.275       .  A
O504       Cd513   2.080       .  S
O505        C519   1.269       .  A
O505       Cd509   2.067       .  S
O506        C517   1.273       .  A
O506       Cd509   2.047       .  S
Zn507       O518   1.952       .  S
Zn507       O520   2.016       .  S
Zn507       O512   1.936       .  S
O508        C519   1.276       .  A
O508       Cd513   2.104       .  S
Cd509       O511   2.074       .  S
Cd509       O512   1.999       .  S
Cd510       O514   2.059       .  S
Cd510       O523   2.083       .  S
Cd510       O512   1.994       .  S
O511        C521   1.275       .  A
O512       Cd513   1.999       .  S
Cd513       O515   2.088       .  S
O514        C521   1.274       .  A
C516        C551   1.495       .  S
C516        O520   1.272       .  A
C519        C558   1.467       .  S
C522        O523   1.279       .  A
O524        C540   1.266       .  A
O524       Zn530   1.953       .  S
C525        O541   1.271       .  A
C525        O538   1.274       .  A
O526        C539   1.285       .  A
O526       Cd533   2.169       .  S
O527        C545   1.277       .  A
O527       Cd536   2.091       .  S
O528        C542   1.278       .  A
O528       Cd532   2.104       .  S
O529        C540   1.284       .  A
O529       Cd532   2.122       .  S
Zn530       O541   1.995       .  S
Zn530       O543   1.950       .  S
Zn530       O535   1.909       .  S
O531        C542   1.269       .  A
O531       Cd536   2.042       .  S
Cd532       O534   2.077       .  S
Cd532       O535   2.004       .  S
Cd533       O537   2.094       .  S
Cd533       O546   2.096       .  S
Cd533       O535   2.012       .  S
O534        C544   1.274       .  A
O535       Cd536   1.986       .  S
Cd536       O538   2.057       .  S
O537        C544   1.284       .  A
C539        C548   1.481       .  S
C539        O543   1.265       .  A
C542        C555   1.464       .  S
C545        O546   1.278       .  A
N547        C548   1.368       .  A
N547        C584   1.461       .  S
C548        C549   1.378       .  A
C549        H552   1.083       .  S
C550        C551   1.388       .  A
C550        H553   1.084       .  S
N554        C558   1.366       .  A
N554        C555   1.364       .  A
N554        C796   1.449       .  S
C555        C556   1.380       .  A
C556        C557   1.355       .  A
C556        H559   1.083       .  S
C557        C558   1.378       .  A
C557        H560   1.083       .  S
N561        C566   1.358       .  A
N561        C565   1.358       .  A
N561        H593   1.034       .  S
N562        C569   1.357       .  A
N562        C570   1.356       .  A
N563        C568   1.364       .  A
N563        C567   1.357       .  A
N563        H594   1.040       .  S
N564        C571   1.353       .  A
N564        C572   1.353       .  A
C565        C573   1.388       .  A
C565        C581   1.426       .  A
C566        C582   1.423       .  A
C566        C574   1.385       .  A
C567        C575   1.396       .  A
C567        C584   1.439       .  A
C568        C583   1.409       .  A
C568        C576   1.372       .  A
C569        C581   1.425       .  A
C569        C577   1.386       .  A
C570        C584   1.424       .  A
C570        C578   1.386       .  A
C571        C579   1.381       .  A
C571        C582   1.410       .  A
C572        C580   1.388       .  A
C572        C583   1.421       .  A
C573        C574   1.378       .  A
C573        H585   1.081       .  S
C574        H586   1.082       .  S
C575        C576   1.365       .  A
C575        H587   1.073       .  S
C576        H588   1.082       .  S
C577        C578   1.385       .  A
C577        H589   1.082       .  S
C578        H590   1.082       .  S
C579        C580   1.370       .  A
C579        H591   1.082       .  S
C580        H592   1.078       .  S
C581        N648   1.453       .  S
C582        N768   1.446       .  S
C583        N701   1.455       .  S
O595        C611   1.265       .  A
O595       Zn601   1.971       .  S
C596        O612   1.268       .  A
C596        O609   1.281       .  A
O597        C610   1.280       .  A
O597       Cd604   2.142       .  S
O598        C616   1.280       .  A
O598       Cd607   2.120       .  S
O599        C613   1.272       .  A
O599       Cd603   2.067       .  S
O600        C611   1.276       .  A
O600       Cd603   2.078       .  S
Zn601       O612   1.978       .  S
Zn601       O614   1.944       .  S
Zn601       O606   1.925       .  S
O602        C613   1.274       .  A
O602       Cd607   2.080       .  S
Cd603       O605   2.041       .  S
Cd603       O606   1.993       .  S
Cd604       O608   2.083       .  S
Cd604       O617   2.073       .  S
Cd604       O606   2.014       .  S
O605        C615   1.270       .  A
O606       Cd607   2.004       .  S
Cd607       O609   2.088       .  S
O608        C615   1.280       .  A
C610        C642   1.473       .  S
C610        O614   1.264       .  A
C613        C649   1.462       .  S
C616        O617   1.275       .  A
O618        C634   1.274       .  A
O618       Zn624   2.020       .  S
C619        O635   1.270       .  A
C619        O632   1.276       .  A
O620        C633   1.278       .  A
O620       Cd627   2.134       .  S
O621        C639   1.273       .  A
O621       Cd630   2.073       .  S
O622        C636   1.275       .  A
O622       Cd626   2.080       .  S
O623        C634   1.280       .  A
O623       Cd626   2.095       .  S
Zn624       O635   1.978       .  S
Zn624       O637   1.997       .  S
Zn624       O629   1.921       .  S
O625        C636   1.273       .  A
O625       Cd630   2.081       .  S
Cd626       O628   2.123       .  S
Cd626       O629   1.999       .  S
Cd627       O631   2.056       .  S
Cd627       O640   2.085       .  S
Cd627       O629   2.012       .  S
O628        C638   1.282       .  A
O629       Cd630   2.003       .  S
Cd630       O632   2.070       .  S
O631        C638   1.273       .  A
C633        C645   1.490       .  S
C633        O637   1.273       .  A
C636        C652   1.456       .  S
C639        O640   1.280       .  A
N641        C645   1.374       .  A
N641        C642   1.367       .  A
N641        C795   1.457       .  S
C642        C643   1.379       .  A
C643        C644   1.360       .  A
C643        H646   1.083       .  S
C644        C645   1.387       .  A
C644        H647   1.084       .  S
N648        C649   1.366       .  A
C649        C650   1.379       .  A
C650        H653   1.083       .  S
C651        C652   1.377       .  A
C651        H654   1.084       .  S
O655        C671   1.274       .  A
O655       Zn661   2.013       .  S
C656        O672   1.264       .  A
C656        O669   1.284       .  A
O657        C670   1.275       .  A
O657       Cd664   2.157       .  S
O658        C676   1.277       .  A
O658       Cd667   2.078       .  S
O659        C673   1.272       .  A
O659       Cd663   2.082       .  S
O660        C671   1.276       .  A
O660       Cd663   2.069       .  S
Zn661       O672   1.972       .  S
Zn661       O674   1.992       .  S
Zn661       O666   1.923       .  S
O662        C673   1.280       .  A
O662       Cd667   2.102       .  S
Cd663       O665   2.117       .  S
Cd663       O666   2.008       .  S
Cd664       O668   2.057       .  S
Cd664       O677   2.121       .  S
Cd664       O666   2.024       .  S
O665        C675   1.280       .  A
O666       Cd667   1.990       .  S
Cd667       O669   2.125       .  S
O668        C675   1.272       .  A
C670        C712   1.484       .  S
C670        O674   1.262       .  A
C673        C705   1.461       .  S
C676        O677   1.287       .  A
O678        C694   1.265       .  A
O678       Zn684   1.951       .  S
C679        O695   1.276       .  A
C679        O692   1.270       .  A
O680        C693   1.274       .  A
O680       Cd687   2.120       .  S
O681        C699   1.272       .  A
O681       Cd690   2.053       .  S
O682        C696   1.280       .  A
O682       Cd686   2.123       .  S
O683        C694   1.287       .  A
O683       Cd686   2.116       .  S
Zn684       O695   2.032       .  S
Zn684       O697   2.011       .  S
Zn684       O689   1.923       .  S
O685        C696   1.267       .  A
O685       Cd690   2.057       .  S
Cd686       O688   2.095       .  S
Cd686       O689   1.993       .  S
Cd687       O691   2.082       .  S
Cd687       O700   2.034       .  S
Cd687       O689   1.992       .  S
O688        C698   1.278       .  A
O689       Cd690   1.991       .  S
Cd690       O692   2.035       .  S
O691        C698   1.280       .  A
C693        C702   1.479       .  S
C693        O697   1.269       .  A
C696        C709   1.473       .  S
C699        O700   1.270       .  A
N701        C702   1.371       .  A
C702        C703   1.385       .  A
C703        H706   1.084       .  S
C704        C705   1.374       .  A
C704        H707   1.084       .  S
N708        C712   1.365       .  A
N708        C709   1.361       .  A
N708        C797   1.442       .  S
C709        C710   1.373       .  A
C710        C711   1.361       .  A
C710        H713   1.081       .  S
C711        C712   1.384       .  A
C711        H714   1.073       .  S
O715        C731   1.266       .  A
O715       Zn721   1.968       .  S
C716        O732   1.270       .  A
C716        O729   1.271       .  A
O717        C730   1.281       .  A
O717       Cd724   2.146       .  S
O718        C736   1.276       .  A
O718       Cd727   2.087       .  S
O719        C733   1.276       .  A
O719       Cd723   2.084       .  S
O720        C731   1.282       .  A
O720       Cd723   2.104       .  S
Zn721       O732   1.986       .  S
Zn721       O734   1.961       .  S
Zn721       O726   1.923       .  S
O722        C733   1.268       .  A
O722       Cd727   2.055       .  S
Cd723       O725   2.080       .  S
Cd723       O726   1.993       .  S
Cd724       O728   2.116       .  S
Cd724       O737   2.063       .  S
Cd724       O726   2.001       .  S
O725        C735   1.276       .  A
O726       Cd727   2.001       .  S
Cd727       O729   2.043       .  S
O728        C735   1.285       .  A
C730        C762   1.485       .  S
C730        O734   1.267       .  A
C733        C769   1.455       .  S
C736        O737   1.273       .  A
O738        C754   1.272       .  A
O738       Zn744   1.995       .  S
C739        O755   1.270       .  A
C739        O752   1.276       .  A
O740        C753   1.284       .  A
O740       Cd747   2.170       .  S
O741        C759   1.273       .  A
O741       Cd750   2.061       .  S
O742        C756   1.273       .  A
O742       Cd746   2.080       .  S
O743        C754   1.274       .  A
O743       Cd746   2.057       .  S
Zn744       O755   1.990       .  S
Zn744       O757   1.979       .  S
Zn744       O749   1.927       .  S
O745        C756   1.273       .  A
O745       Cd750   2.081       .  S
Cd746       O748   2.104       .  S
Cd746       O749   2.004       .  S
Cd747       O751   2.072       .  S
Cd747       O760   2.137       .  S
Cd747       O749   2.016       .  S
O748        C758   1.278       .  A
O749       Cd750   2.000       .  S
Cd750       O752   2.082       .  S
O751        C758   1.274       .  A
C753        C765   1.493       .  S
C753        O757   1.268       .  A
C756        C772   1.456       .  S
C759        O760   1.290       .  A
N761        C765   1.367       .  A
N761        C762   1.363       .  A
N761        C798   1.445       .  S
C762        C763   1.384       .  A
C763        C764   1.368       .  A
C763        H766   1.083       .  S
C764        C765   1.386       .  A
C764        H767   1.083       .  S
N768        C769   1.359       .  A
C769        C770   1.379       .  A
C770        H773   1.083       .  S
C771        C772   1.377       .  A
C771        H774   1.084       .  S
N775       C2396   1.356       .  A
N775        C779   1.359       .  A
N775        H807   1.031       .  S
N776       C1591   1.356       .  A
N776        C784   1.359       .  A
N777       C2398   1.356       .  A
N777        C781   1.350       .  A
N777        H808   1.031       .  S
N778       C1593   1.354       .  A
N778        C786   1.354       .  A
C779        C787   1.385       .  A
C779        C795   1.427       .  A
C780       N2391   1.361   1_455  A
C780        C796   1.433       .  A
C780        C788   1.389   1_455  A
C781        C789   1.393       .  A
C781        C798   1.428       .  A
C782       N2393   1.354       .  A
C782        C797   1.406       .  A
C782        C790   1.376       .  A
C783       N1584   1.354   1_545  A
C783        C795   1.438       .  A
C783        C791   1.395   1_545  A
C784        C798   1.408       .  A
C784        C792   1.372       .  A
C785       N1586   1.354       .  A
C785        C793   1.383       .  A
C785        C796   1.418       .  A
C786        C794   1.387       .  A
C786        C797   1.424       .  A
C787       C2404   1.385       .  A
C787        H799   1.082       .  S
C788       C2403   1.386       .  A
C788        H800   1.082       .  S
C789       C2406   1.370       .  A
C789        H801   1.076       .  S
C790       C2405   1.369       .  A
C790        H802   1.082       .  S
C791       C1600   1.361       .  A
C791        H803   1.070   1_565  S
C792       C1599   1.362       .  A
C792        H804   1.083       .  S
C793       C1602   1.375       .  A
C793        H805   1.083       .  S
C794       C1601   1.375       .  A
C794        H806   1.082       .  S
C809        N810   1.351       .  A
C809        N814   1.353       .  A
C809       C1158   1.444       .  S
N810        C811   1.351       .  A
C811        N812   1.365       .  A
C811       C1023   1.459       .  S
N812        C813   1.359       .  A
C813        N814   1.353       .  A
C813        C819   1.471       .  S
C815        N816   1.350       .  A
C815        N820   1.356       .  A
C815       C1120   1.449       .  S
N816        C817   1.348       .  A
C817        N818   1.364       .  A
C817       C1015   1.457       .  S
N818        C819   1.360       .  A
C819        N820   1.358       .  A
C821        N822   1.353       .  A
C821        N826   1.365       .  A
C821        C926   1.467       .  S
N822        C823   1.354       .  A
C823        N824   1.359       .  A
C823       C1038   1.466       .  S
N824        C825   1.362       .  A
C825        N826   1.364       .  A
C825        C829   1.484       .  S
C827        N828   1.366       .  A
C827        N832   1.349       .  A
C827        C948   1.457       .  S
N828        C829   1.364       .  A
C829        N830   1.360       .  A
N830        C831   1.358       .  A
C831        N832   1.349       .  A
C831       C1000   1.453       .  S
C833        N834   1.366       .  A
C833        N838   1.351       .  A
C833        C925   1.455       .  S
N834        C835   1.367       .  A
C835        N836   1.367       .  A
C835        C843   1.506       .  S
N836        C837   1.373       .  A
C837        N838   1.345       .  A
C837       C1060   1.476       .  S
C839        N840   1.350       .  A
C839        N844   1.364       .  A
C839        C949   1.465       .  S
N840        C841   1.350       .  A
C841        N842   1.373       .  A
C841       C1102   1.479       .  S
N842        C843   1.374       .  A
C843        N844   1.368       .  A
C845        N846   1.358       .  A
C845        N850   1.359       .  A
C845       C1075   1.464       .  S
N846        C847   1.353       .  A
C847        N848   1.365       .  A
C847       C1143   1.478       .  S
N848        C849   1.364       .  A
C849        N850   1.361       .  A
C849        C855   1.481       .  S
C851        N852   1.351       .  A
C851        N856   1.359       .  A
C851       C1103   1.447       .  S
N852        C853   1.351       .  A
C853        N854   1.364       .  A
C853       C1135   1.463       .  S
N854        C855   1.361       .  A
C855        N856   1.359       .  A
C857        N858   1.355       .  A
C857       C1079   1.441       .  S
C859        N860   1.361       .  A
C859       C1269   1.482       .  S
N860        C861   1.366       .  A
C861        N862   1.349       .  A
C861        C906   1.461       .  S
C863        N864   1.355       .  A
C863       C1083   1.452       .  S
C865        N866   1.363       .  A
C865       C1263   1.484   1_554  S
N866        C867   1.365       .  A
C867        N868   1.352       .  A
C867        C944   1.466       .  S
C869        N870   1.357       .  A
C869        N874   1.361       .  A
C869       C1162   1.470       .  S
N870       C2487   1.356       .  A
C871       N2486   1.350   1_455  A
C871        N872   1.369       .  A
C871       C1080   1.477       .  S
N872       C2489   1.371   1_455  A
C873       N2488   1.369       .  A
C873        N874   1.365       .  A
C873       C1281   1.493       .  S
C875        N876   1.361       .  A
C875        N880   1.350       .  A
C875       C1140   1.460       .  S
N876        C877   1.364       .  A
C877       N2494   1.375       .  A
C877       C1277   1.506   1_554  S
N878       C2493   1.368   1_455  A
N878        C879   1.373       .  A
C879       N2496   1.348   1_455  A
C879       C1098   1.481       .  S
N880       C2495   1.352       .  A
C881        N882   1.364       .  A
C881       C1020   1.466       .  S
N882        C883   1.368       .  A
N884        C885   1.372       .  A
C885        N886   1.357       .  A
C885       C1139   1.486       .  S
C887        N888   1.351       .  A
C887        N892   1.365       .  A
C887       C1042   1.465       .  S
C889        N890   1.371       .  A
C889       C1163   1.481       .  S
N890        C891   1.373       .  A
C893        N894   1.369       .  A
C893        N898   1.348       .  A
C893       C1019   1.460       .  S
N894        C895   1.367       .  A
C895       N2512   1.357       .  A
C895       C1307   1.483   1_554  S
N896       C2511   1.361   1_455  A
N896        C897   1.356       .  A
C897       N2514   1.354   1_455  A
C897        C929   1.459       .  S
N898       C2513   1.348       .  A
C899        N900   1.352       .  A
C899        N904   1.364       .  A
C899       C1043   1.462       .  S
N900       C2517   1.354       .  A
C901       N2516   1.351   1_455  A
C901        N902   1.359       .  A
C901        C921   1.464       .  S
N902       C2519   1.364   1_455  A
C903       N2518   1.361       .  A
C903        N904   1.362       .  A
C903       C1299   1.478       .  S
O905        C921   1.273       .  A
O905       Zn911   2.022       .  S
C906        O922   1.265       .  A
C906        O919   1.283       .  A
O907        C920   1.278       .  A
O907       Cd914   2.127       .  S
O908        C926   1.275       .  A
O908       Cd917   2.080       .  S
O909        C923   1.269       .  A
O909       Cd913   2.063       .  S
O910        C921   1.274       .  A
O910       Cd913   2.057       .  S
Zn911       O922   1.950       .  S
Zn911       O924   1.987       .  S
Zn911       O916   1.926       .  S
O912        C923   1.277       .  A
O912       Cd917   2.100       .  S
Cd913       O915   2.082       .  S
Cd913       O916   2.004       .  S
Cd914       O918   2.049       .  S
Cd914       O927   2.089       .  S
Cd914       O916   1.999       .  S
O915        C925   1.275       .  A
O916       Cd917   2.001       .  S
Cd917       O919   2.105       .  S
O918        C925   1.273       .  A
C920        C955   1.479       .  S
C920        O924   1.269       .  A
C923        C962   1.464       .  S
C926        O927   1.280       .  A
O928        C944   1.269       .  A
O928       Zn934   1.983       .  S
C929        O945   1.275       .  A
C929        O942   1.273       .  A
O930        C943   1.279       .  A
O930       Cd937   2.127       .  S
O931        C949   1.275       .  A
O931       Cd940   2.084       .  S
O932        C946   1.275       .  A
O932       Cd936   2.084       .  S
O933        C944   1.280       .  A
O933       Cd936   2.091       .  S
Zn934       O945   2.018       .  S
Zn934       O947   1.982       .  S
Zn934       O939   1.919       .  S
O935        C946   1.267       .  A
O935       Cd940   2.053       .  S
Cd936       O938   2.058       .  S
Cd936       O939   1.992       .  S
Cd937       O941   2.081       .  S
Cd937       O950   2.073       .  S
Cd937       O939   2.004       .  S
O938        C948   1.272       .  A
O939       Cd940   1.993       .  S
Cd940       O942   2.048       .  S
O941        C948   1.280       .  A
C943        C952   1.478       .  S
C943        O947   1.271       .  A
C946        C959   1.459       .  S
C949        O950   1.275       .  A
N951       C1359   1.374   1_554  A
N951        C952   1.372       .  A
N951        C988   1.467       .  S
C952        C953   1.384       .  A
C953       C1358   1.357   1_554  A
C953        H956   1.084       .  S
C954       C1357   1.358       .  A
C954        C955   1.384       .  A
C954        H957   1.084       .  S
C955       N1355   1.374       .  A
N958        C962   1.361       .  A
N958        C959   1.359       .  A
N958       C1200   1.447       .  S
C959        C960   1.379       .  A
C960        C961   1.359       .  A
C960        H963   1.082       .  S
C961        C962   1.379       .  A
C961        H964   1.082       .  S
N965        C970   1.363       .  A
N965        C969   1.358       .  A
N965        H997   1.033       .  S
N966        C973   1.357       .  A
N966        C974   1.362       .  A
N967        C972   1.359       .  A
N967        C971   1.359       .  A
N967        H998   1.028       .  S
N968        C975   1.357       .  A
N968        C976   1.353       .  A
C969        C977   1.387       .  A
C969        C985   1.428       .  A
C970        C986   1.432       .  A
C970        C978   1.386       .  A
C971        C979   1.395       .  A
C971        C988   1.446       .  A
C972        C987   1.411       .  A
C972        C980   1.373       .  A
C973        C985   1.433       .  A
C973        C981   1.389       .  A
C974        C988   1.431       .  A
C974        C982   1.384       .  A
C975        C983   1.378       .  A
C975        C986   1.413       .  A
C976        C984   1.391       .  A
C976        C987   1.431       .  A
C977        C978   1.383       .  A
C977        H989   1.082   1_554  S
C978        H990   1.082   1_554  S
C979        C980   1.366       .  A
C979        H991   1.068       .  S
C980        H992   1.083       .  S
C981        C982   1.383       .  A
C981        H993   1.082       .  S
C982        H994   1.082       .  S
C983        C984   1.371       .  A
C983        H995   1.082       .  S
C984        H996   1.079       .  S
C985       N1052   1.452       .  S
C986       N1172   1.457       .  S
C987       N1105   1.450       .  S
O999       C1015   1.262       .  A
O999      Zn1005   1.940       .  S
C1000      O1016   1.267       .  A
C1000      O1013   1.275       .  A
O1001      C1014   1.280       .  A
O1001     Cd1008   2.147       .  S
O1002      C1020   1.277       .  A
O1002     Cd1011   2.100       .  S
O1003      C1017   1.274       .  A
O1003     Cd1007   2.080       .  S
O1004      C1015   1.280       .  A
O1004     Cd1007   2.094       .  S
Zn1005     O1016   1.971       .  S
Zn1005     O1018   1.941       .  S
Zn1005     O1010   1.911       .  S
O1006      C1017   1.269       .  A
O1006     Cd1011   2.061       .  S
Cd1007     O1009   2.060       .  S
Cd1007     O1010   1.996       .  S
Cd1008     O1012   2.092       .  S
Cd1008     O1021   2.058       .  S
Cd1008     O1010   2.006       .  S
O1009      C1019   1.273       .  A
O1010     Cd1011   1.999       .  S
Cd1011     O1013   2.060       .  S
O1012      C1019   1.282       .  A
C1014      C1046   1.476       .  S
C1014      O1018   1.263       .  A
C1017      C1053   1.455       .  S
C1020      O1021   1.273       .  A
O1022      C1038   1.273       .  A
O1022     Zn1028   2.010       .  S
C1023      O1039   1.265       .  A
C1023      O1036   1.279       .  A
O1024      C1037   1.279       .  A
O1024     Cd1031   2.136       .  S
O1025      C1043   1.273       .  A
O1025     Cd1034   2.065       .  S
O1026      C1040   1.272       .  A
O1026     Cd1030   2.063       .  S
O1027      C1038   1.277       .  A
O1027     Cd1030   2.072       .  S
Zn1028     O1039   1.952       .  S
Zn1028     O1041   1.981       .  S
Zn1028     O1033   1.922       .  S
O1029      C1040   1.276       .  A
O1029     Cd1034   2.094       .  S
Cd1030     O1032   2.102       .  S
Cd1030     O1033   1.997       .  S
Cd1031     O1035   2.059       .  S
Cd1031     O1044   2.089       .  S
Cd1031     O1033   2.003       .  S
O1032      C1042   1.279       .  A
O1033     Cd1034   1.999       .  S
Cd1034     O1036   2.090       .  S
O1035      C1042   1.273       .  A
C1037      C1049   1.482       .  S
C1037      O1041   1.268       .  A
C1040      C1056   1.462       .  S
C1043      O1044   1.281       .  A
N1045      C1049   1.372       .  A
N1045      C1046   1.366       .  A
N1045      C1199   1.452       .  S
C1046      C1047   1.381       .  A
C1047      C1048   1.360       .  A
C1047      H1050   1.083       .  S
C1048      C1049   1.386       .  A
C1048      H1051   1.084       .  S
N1052      C1460   1.361   1_554  A
N1052      C1053   1.362       .  A
C1053      C1054   1.379       .  A
C1054      C1459   1.354   1_554  A
C1054      H1057   1.083       .  S
C1055      C1458   1.349       .  A
C1055      C1056   1.379       .  A
C1055      H1058   1.084       .  S
C1056      N1456   1.369       .  A
O1059      C1075   1.276       .  A
O1059     Zn1065   2.038       .  S
C1060      O1076   1.260       .  A
C1060      O1073   1.293       .  A
O1061      C1074   1.276       .  A
O1061     Cd1068   2.143       .  S
O1062      C1080   1.279       .  A
O1062     Cd1071   2.103       .  S
O1063      C1077   1.270       .  A
O1063     Cd1067   2.037       .  S
O1064      C1075   1.272       .  A
O1064     Cd1067   2.040       .  S
Zn1065     O1076   1.920       .  S
Zn1065     O1078   2.001       .  S
Zn1065     O1070   1.927       .  S
O1066      C1077   1.288       .  A
O1066     Cd1071   2.176       .  S
Cd1067     O1069   2.061       .  S
Cd1067     O1070   1.969       .  S
Cd1068     O1072   2.033       .  S
Cd1068     O1081   2.097       .  S
Cd1068     O1070   1.989       .  S
O1069      C1079   1.273       .  A
O1070     Cd1071   2.006       .  S
Cd1071     O1073   2.167       .  S
O1072      C1079   1.269       .  A
C1074      C1116   1.479       .  S
C1074      O1078   1.263       .  A
C1077      C1109   1.494       .  S
C1080      O1081   1.285       .  A
O1082      C1098   1.262       .  A
O1082     Zn1088   1.937       .  S
C1083      O1099   1.272       .  A
C1083      O1096   1.271       .  A
O1084      C1097   1.279       .  A
O1084     Cd1091   2.147       .  S
O1085      C1103   1.274       .  A
O1085     Cd1094   2.067       .  S
O1086      C1100   1.287       .  A
O1086     Cd1090   2.171       .  S
O1087      C1098   1.294       .  A
O1087     Cd1090   2.175       .  S
Zn1088     O1099   2.002       .  S
Zn1088     O1101   1.991       .  S
Zn1088     O1093   1.925       .  S
O1089      C1100   1.269       .  A
O1089     Cd1094   2.037       .  S
Cd1090     O1092   2.108       .  S
Cd1090     O1093   2.010       .  S
Cd1091     O1095   2.097       .  S
Cd1091     O1104   2.038       .  S
Cd1091     O1093   1.986       .  S
O1092      C1102   1.280       .  A
O1093     Cd1094   1.981       .  S
Cd1094     O1096   2.036       .  S
O1095      C1102   1.286       .  A
C1097      C1106   1.484       .  S
C1097      O1101   1.267       .  A
C1100      C1113   1.492       .  S
C1103      O1104   1.269       .  A
N1105      C1513   1.364   1_554  A
N1105      C1106   1.367       .  A
C1106      C1107   1.386       .  A
C1107      C1512   1.365       .  A
C1107      H1110   1.083       .  S
C1108      C1511   1.363       .  A
C1108      C1109   1.381       .  A
C1108      H1111   1.083       .  S
C1109      N1509   1.365       .  A
N1112      C1116   1.366       .  A
N1112      C1113   1.364       .  A
N1112      C1201   1.445       .  S
C1113      C1114   1.380       .  A
C1114      C1115   1.365       .  A
C1114      H1117   1.083       .  S
C1115      C1116   1.383       .  A
C1115      H1118   1.082       .  S
O1119      C1135   1.266       .  A
O1119     Zn1125   1.959       .  S
C1120      O1136   1.270       .  A
C1120      O1133   1.271       .  A
O1121      C1134   1.282       .  A
O1121     Cd1128   2.157       .  S
O1122      C1140   1.275       .  A
O1122     Cd1131   2.074       .  S
O1123      C1137   1.277       .  A
O1123     Cd1127   2.103       .  S
O1124      C1135   1.281       .  A
O1124     Cd1127   2.100       .  S
Zn1125     O1136   1.993       .  S
Zn1125     O1138   1.982       .  S
Zn1125     O1130   1.931       .  S
O1126      C1137   1.271       .  A
O1126     Cd1131   2.058       .  S
Cd1127     O1129   2.094       .  S
Cd1127     O1130   1.995       .  S
Cd1128     O1132   2.129       .  S
Cd1128     O1141   2.068       .  S
Cd1128     O1130   1.996       .  S
O1129      C1139   1.279       .  A
O1130     Cd1131   1.989       .  S
Cd1131     O1133   2.038       .  S
O1132      C1139   1.288       .  A
C1134      C1166   1.486       .  S
C1134      O1138   1.267       .  A
C1137      C1173   1.463       .  S
C1140      O1141   1.274       .  A
O1142      C1158   1.269       .  A
O1142     Zn1148   1.970       .  S
C1143      O1159   1.269       .  A
C1143      O1156   1.284       .  A
O1144      C1157   1.283       .  A
O1144     Cd1151   2.166       .  S
O1145      C1163   1.278       .  A
O1145     Cd1154   2.087       .  S
O1146      C1160   1.267       .  A
O1146     Cd1150   2.066       .  S
O1147      C1158   1.270       .  A
O1147     Cd1150   2.039       .  S
Zn1148     O1159   1.990       .  S
Zn1148     O1161   1.982       .  S
Zn1148     O1153   1.924       .  S
O1149      C1160   1.277       .  A
O1149     Cd1154   2.102       .  S
Cd1150     O1152   2.091       .  S
Cd1150     O1153   2.009       .  S
Cd1151     O1155   2.077       .  S
Cd1151     O1164   2.127       .  S
Cd1151     O1153   2.012       .  S
O1152      C1162   1.276       .  A
O1153     Cd1154   2.008       .  S
Cd1154     O1156   2.123       .  S
O1155      C1162   1.275       .  A
C1157      C1169   1.496       .  S
C1157      O1161   1.269       .  A
C1160      C1176   1.460       .  S
C1163      O1164   1.288       .  A
N1165      C1169   1.366       .  A
N1165      C1166   1.363       .  A
N1165      C1202   1.445       .  S
C1166      C1167   1.382       .  A
C1167      C1168   1.370       .  A
C1167      H1170   1.083       .  S
C1168      C1169   1.387       .  A
C1168      H1171   1.083       .  S
N1172      C1580   1.368   1_554  A
N1172      C1173   1.368       .  A
C1173      C1174   1.379       .  A
C1174      C1579   1.351   1_554  A
C1174      H1177   1.084       .  S
C1175      C1578   1.353       .  A
C1175      C1176   1.377       .  A
C1175      H1178   1.083       .  S
C1176      N1576   1.365       .  A
N1179      C2800   1.357       .  A
N1179      C1183   1.358       .  A
N1179      H1211   1.033       .  S
N1180      C1188   1.357       .  A
N1181      C2802   1.355       .  A
N1181      C1185   1.351       .  A
N1181      H1212   1.028       .  S
N1182      C1190   1.356   1_545  A
C1183      C1191   1.385       .  A
C1183      C1199   1.425       .  A
C1184      N2795   1.355   1_455  A
C1184      C1200   1.430       .  A
C1184      C1192   1.390   1_455  A
C1185      C1193   1.393       .  A
C1185      C1202   1.429       .  A
C1186      N2797   1.355       .  A
C1186      C1201   1.405       .  A
C1186      C1194   1.378       .  A
C1187      C1199   1.433       .  A
C1187      C1195   1.395       .  A
C1188      C1202   1.409       .  A
C1188      C1196   1.372       .  A
C1189      C1197   1.382       .  A
C1189      C1200   1.418       .  A
C1190      C1198   1.387   1_565  A
C1190      C1201   1.427       .  A
C1191      C2808   1.386       .  A
C1191      H1203   1.082       .  S
C1192      C2807   1.383       .  A
C1192      H1204   1.082       .  S
C1193      C2810   1.371       .  A
C1193      H1205   1.077       .  S
C1194      C2809   1.371   1_455  A
C1194      H1206   1.083       .  S
C1195      H1207   1.072       .  S
C1196      H1208   1.083       .  S
C1197      H1209   1.082       .  S
C1198      H1210   1.081   1_545  S
C1213      N1214   1.357       .  A
C1213      N1218   1.354       .  A
C1213      C1562   1.457       .  S
N1214      C1215   1.357       .  A
C1215      N1216   1.359       .  A
C1215      C1427   1.462       .  S
N1216      C1217   1.356       .  A
C1217      N1218   1.356       .  A
C1217      C1223   1.462       .  S
C1219      N1220   1.354       .  A
C1219      N1224   1.352       .  A
C1219      C1524   1.444       .  S
N1220      C1221   1.349       .  A
C1221      N1222   1.361       .  A
C1221      C1419   1.461       .  S
N1222      C1223   1.359       .  A
C1223      N1224   1.354       .  A
C1225      N1226   1.354       .  A
C1225      N1230   1.367       .  A
C1225      C1330   1.463       .  S
N1226      C1227   1.353       .  A
C1227      N1228   1.356       .  A
C1227      C1442   1.465       .  S
N1228      C1229   1.361       .  A
C1229      N1230   1.365       .  A
C1229      C1233   1.483       .  S
C1231      N1232   1.368       .  A
C1231      N1236   1.351       .  A
C1231      C1352   1.463       .  S
N1232      C1233   1.366       .  A
C1233      N1234   1.359       .  A
N1234      C1235   1.355       .  A
C1235      N1236   1.351       .  A
C1235      C1404   1.454       .  S
C1237      N1238   1.365       .  A
C1237      N1242   1.358       .  A
C1237      C1329   1.467       .  S
N1238      C1239   1.366       .  A
C1239      N1240   1.369       .  A
C1239      C1247   1.507       .  S
N1240      C1241   1.373       .  A
C1241      N1242   1.353       .  A
C1241      C1464   1.488       .  S
C1243      N1244   1.351       .  A
C1243      N1248   1.369       .  A
C1243      C1353   1.476       .  S
N1244      C1245   1.351       .  A
C1245      N1246   1.369       .  A
C1245      C1506   1.474       .  S
N1246      C1247   1.371       .  A
C1247      N1248   1.372       .  A
C1249      N1250   1.356       .  A
C1249      N1254   1.352       .  A
C1249      C1479   1.445       .  S
N1250      C1251   1.351       .  A
C1251      N1252   1.368       .  A
C1251      C1547   1.476       .  S
N1252      C1253   1.365       .  A
C1253      N1254   1.352       .  A
C1253      C1259   1.473       .  S
C1255      N1256   1.346       .  A
C1255      N1260   1.358       .  A
C1255      C1507   1.443       .  S
N1256      C1257   1.347       .  A
C1257      N1258   1.362       .  A
C1257      C1539   1.451       .  S
N1258      C1259   1.358       .  A
C1259      N1260   1.362       .  A
C1261      N1262   1.352       .  A
C1261      C1483   1.431       .  S
C1263      N1264   1.361       .  A
N1264      C1265   1.361       .  A
C1265      N1266   1.355       .  A
C1265      C1310   1.476       .  S
C1267      N1268   1.355       .  A
C1267      C1487   1.454       .  S
C1269      N1270   1.366       .  A
N1270      C1271   1.368       .  A
C1271      N1272   1.353       .  A
C1271      C1348   1.479       .  S
C1273      N1274   1.354       .  A
C1273      N1278   1.368       .  A
C1273      C1566   1.479       .  S
N1274      C2891   1.352       .  A
C1275      N2890   1.352   1_455  A
C1275      N1276   1.369       .  A
C1275      C1484   1.472       .  S
N1276      C2893   1.369   1_455  A
C1277      N2892   1.369       .  A
C1277      N1278   1.373       .  A
C1279      N1280   1.359       .  A
C1279      N1284   1.354       .  A
C1279      C1544   1.451       .  S
N1280      C1281   1.362       .  A
C1281      N2898   1.366       .  A
N1282      C2897   1.367   1_455  A
N1282      C1283   1.372       .  A
C1283      N2900   1.346   1_455  A
C1283      C1502   1.475       .  S
N1284      C2899   1.350       .  A
C1285      N1286   1.370       .  A
C1285      C1424   1.481       .  S
N1286      C1287   1.373       .  A
N1288      C1289   1.370       .  A
C1289      N1290   1.350       .  A
C1289      C1543   1.479       .  S
C1291      N1292   1.353       .  A
C1291      N1296   1.364       .  A
C1291      C1446   1.466       .  S
C1293      N1294   1.371       .  A
C1293      C1567   1.479       .  S
N1294      C1295   1.371       .  A
C1297      N1298   1.367       .  A
C1297      N1302   1.349       .  A
C1297      C1423   1.454       .  S
N1298      C1299   1.365       .  A
C1299      N2916   1.356       .  A
N1300      C2915   1.361   1_455  A
N1300      C1301   1.359       .  A
C1301      N2918   1.351   1_455  A
C1301      C1333   1.459       .  S
N1302      C2917   1.347       .  A
C1303      N1304   1.352       .  A
C1303      N1308   1.365       .  A
C1303      C1447   1.460       .  S
N1304      C2921   1.353       .  A
C1305      N2920   1.351   1_455  A
C1305      N1306   1.352       .  A
C1305      C1325   1.452       .  S
N1306      C2923   1.356   1_455  A
C1307      N2922   1.362       .  A
C1307      N1308   1.363       .  A
O1309      C1325   1.272       .  A
O1309     Zn1315   1.999       .  S
C1310      O1326   1.272       .  A
C1310      O1323   1.281       .  A
O1311      C1324   1.276       .  A
O1311     Cd1318   2.127       .  S
O1312      C1330   1.276       .  A
O1312     Cd1321   2.083       .  S
O1313      C1327   1.269       .  A
O1313     Cd1317   2.063       .  S
O1314      C1325   1.272       .  A
O1314     Cd1317   2.047       .  S
Zn1315     O1326   2.004       .  S
Zn1315     O1328   1.993       .  S
Zn1315     O1320   1.920       .  S
O1316      C1327   1.275       .  A
O1316     Cd1321   2.092       .  S
Cd1317     O1319   2.102       .  S
Cd1317     O1320   2.007       .  S
Cd1318     O1322   2.057       .  S
Cd1318     O1331   2.073       .  S
Cd1318     O1320   2.012       .  S
O1319      C1329   1.278       .  A
O1320     Cd1321   2.007       .  S
Cd1321     O1323   2.106       .  S
O1322      C1329   1.272       .  A
C1324      C1359   1.486       .  S
C1324      O1328   1.273       .  A
C1327      C1366   1.457       .  S
C1330      O1331   1.278       .  A
O1332      C1348   1.267       .  A
O1332     Zn1338   1.985       .  S
C1333      O1349   1.271       .  A
C1333      O1346   1.277       .  A
O1334      C1347   1.281       .  A
O1334     Cd1341   2.155       .  S
O1335      C1353   1.277       .  A
O1335     Cd1344   2.102       .  S
O1336      C1350   1.277       .  A
O1336     Cd1340   2.091       .  S
O1337      C1348   1.283       .  A
O1337     Cd1340   2.123       .  S
Zn1338     O1349   1.989       .  S
Zn1338     O1351   1.942       .  S
Zn1338     O1343   1.913       .  S
O1339      C1350   1.270       .  A
O1339     Cd1344   2.052       .  S
Cd1340     O1342   2.064       .  S
Cd1340     O1343   1.997       .  S
Cd1341     O1345   2.093       .  S
Cd1341     O1354   2.090       .  S
Cd1341     O1343   2.022       .  S
O1342      C1352   1.273       .  A
O1343     Cd1344   2.001       .  S
Cd1344     O1346   2.074       .  S
O1345      C1352   1.282       .  A
C1347      C1356   1.482       .  S
C1347      O1351   1.266       .  A
C1350      C1363   1.459       .  S
C1353      O1354   1.277       .  A
N1355      C1356   1.370       .  A
N1355      C1392   1.458       .  S
C1356      C1357   1.384       .  A
C1357      H1360   1.083       .  S
C1358      C1359   1.384       .  A
C1358      H1361   1.084       .  S
N1362      C1366   1.362       .  A
N1362      C1363   1.361       .  A
N1362      C1604   1.448       .  S
C1363      C1364   1.379       .  A
C1364      C1365   1.356       .  A
C1364      H1367   1.083       .  S
C1365      C1366   1.378       .  A
C1365      H1368   1.083       .  S
N1369      C1374   1.361       .  A
N1369      C1373   1.360       .  A
N1369      H1401   1.035       .  S
N1370      C1377   1.359       .  A
N1370      C1378   1.361       .  A
N1371      C1376   1.360       .  A
N1371      C1375   1.354       .  A
N1371      H1402   1.029       .  S
N1372      C1379   1.354       .  A
N1372      C1380   1.353       .  A
C1373      C1381   1.385       .  A
C1373      C1389   1.428       .  A
C1374      C1390   1.431       .  A
C1374      C1382   1.386       .  A
C1375      C1383   1.397       .  A
C1375      C1392   1.442       .  A
C1376      C1391   1.410       .  A
C1376      C1384   1.373       .  A
C1377      C1389   1.434       .  A
C1377      C1385   1.388       .  A
C1378      C1392   1.431       .  A
C1378      C1386   1.385       .  A
C1379      C1387   1.380       .  A
C1379      C1390   1.411       .  A
C1380      C1388   1.389       .  A
C1380      C1391   1.426       .  A
C1381      C1382   1.383       .  A
C1381      H1393   1.082       .  S
C1382      H1394   1.082       .  S
C1383      C1384   1.367       .  A
C1383      H1395   1.070       .  S
C1384      H1396   1.083       .  S
C1385      C1386   1.385       .  A
C1385      H1397   1.082       .  S
C1386      H1398   1.082       .  S
C1387      C1388   1.370       .  A
C1387      H1399   1.082       .  S
C1388      H1400   1.079       .  S
C1389      N1456   1.458       .  S
C1390      N1576   1.453       .  S
C1391      N1509   1.449       .  S
O1403      C1419   1.266       .  A
O1403     Zn1409   1.962       .  S
C1404      O1420   1.271       .  A
C1404      O1417   1.275       .  A
O1405      C1418   1.280       .  A
O1405     Cd1412   2.150       .  S
O1406      C1424   1.281       .  A
O1406     Cd1415   2.120       .  S
O1407      C1421   1.275       .  A
O1407     Cd1411   2.091       .  S
O1408      C1419   1.279       .  A
O1408     Cd1411   2.093       .  S
Zn1409     O1420   1.992       .  S
Zn1409     O1422   1.957       .  S
Zn1409     O1414   1.910       .  S
O1410      C1421   1.270       .  A
O1410     Cd1415   2.069       .  S
Cd1411     O1413   2.055       .  S
Cd1411     O1414   1.999       .  S
Cd1412     O1416   2.084       .  S
Cd1412     O1425   2.083       .  S
Cd1412     O1414   2.013       .  S
O1413      C1423   1.272       .  A
O1414     Cd1415   1.990       .  S
Cd1415     O1417   2.056       .  S
O1416      C1423   1.281       .  A
C1418      C1450   1.481       .  S
C1418      O1422   1.267       .  A
C1421      C1457   1.457       .  S
C1424      O1425   1.277       .  A
O1426      C1442   1.274       .  A
O1426     Zn1432   2.017       .  S
C1427      O1443   1.272       .  A
C1427      O1440   1.276       .  A
O1428      C1441   1.276       .  A
O1428     Cd1435   2.115       .  S
O1429      C1447   1.274       .  A
O1429     Cd1438   2.070       .  S
O1430      C1444   1.269       .  A
O1430     Cd1434   2.062       .  S
O1431      C1442   1.276       .  A
O1431     Cd1434   2.069       .  S
Zn1432     O1443   1.993       .  S
Zn1432     O1445   2.002       .  S
Zn1432     O1437   1.917       .  S
O1433      C1444   1.273       .  A
O1433     Cd1438   2.068       .  S
Cd1434     O1436   2.110       .  S
Cd1434     O1437   2.007       .  S
Cd1435     O1439   2.047       .  S
Cd1435     O1448   2.073       .  S
Cd1435     O1437   2.007       .  S
O1436      C1446   1.279       .  A
O1437     Cd1438   1.998       .  S
Cd1438     O1440   2.074       .  S
O1439      C1446   1.272       .  A
C1441      C1453   1.484       .  S
C1441      O1445   1.274       .  A
C1444      C1460   1.451       .  S
C1447      O1448   1.277       .  A
N1449      C1453   1.374       .  A
N1449      C1450   1.372       .  A
N1449      C1603   1.464       .  S
C1450      C1451   1.382       .  A
C1451      C1452   1.357       .  A
C1451      H1454   1.083       .  S
C1452      C1453   1.385       .  A
C1452      H1455   1.084       .  S
N1456      C1457   1.368       .  A
C1457      C1458   1.377       .  A
C1458      H1461   1.083       .  S
C1459      C1460   1.378       .  A
C1459      H1462   1.083       .  S
O1463      C1479   1.275       .  A
O1463     Zn1469   2.007       .  S
C1464      O1480   1.267       .  A
C1464      O1477   1.293       .  A
O1465      C1478   1.272       .  A
O1465     Cd1472   2.130       .  S
O1466      C1484   1.281       .  A
O1466     Cd1475   2.105       .  S
O1467      C1481   1.268       .  A
O1467     Cd1471   2.047       .  S
O1468      C1479   1.267       .  A
O1468     Cd1471   2.012       .  S
Zn1469     O1480   1.965       .  S
Zn1469     O1482   2.018       .  S
Zn1469     O1474   1.921       .  S
O1470      C1481   1.288       .  A
O1470     Cd1475   2.175       .  S
Cd1471     O1473   2.046       .  S
Cd1471     O1474   1.985       .  S
Cd1472     O1476   2.010       .  S
Cd1472     O1485   2.080       .  S
Cd1472     O1474   1.991       .  S
O1473      C1483   1.269       .  A
O1474     Cd1475   2.000       .  S
Cd1475     O1477   2.170       .  S
O1476      C1483   1.265       .  A
C1478      C1520   1.483       .  S
C1478      O1482   1.268       .  A
C1481      C1513   1.492       .  S
C1484      O1485   1.283       .  A
O1486      C1502   1.262       .  A
O1486     Zn1492   1.935       .  S
C1487      O1503   1.276       .  A
C1487      O1500   1.267       .  A
O1488      C1501   1.276       .  A
O1488     Cd1495   2.134       .  S
O1489      C1507   1.271       .  A
O1489     Cd1498   2.052       .  S
O1490      C1504   1.286       .  A
O1490     Cd1494   2.153       .  S
O1491      C1502   1.291       .  A
O1491     Cd1494   2.155       .  S
Zn1492     O1503   2.037       .  S
Zn1492     O1505   2.002       .  S
Zn1492     O1497   1.924       .  S
O1493      C1504   1.266       .  A
O1493     Cd1498   2.023       .  S
Cd1494     O1496   2.103       .  S
Cd1494     O1497   1.993       .  S
Cd1495     O1499   2.084       .  S
Cd1495     O1508   2.042       .  S
Cd1495     O1497   1.984       .  S
O1496      C1506   1.279       .  A
O1497     Cd1498   1.972       .  S
Cd1498     O1500   2.011       .  S
O1499      C1506   1.283       .  A
C1501      C1510   1.476       .  S
C1501      O1505   1.264       .  A
C1504      C1517   1.479       .  S
C1507      O1508   1.269       .  A
N1509      C1510   1.367       .  A
C1510      C1511   1.382       .  A
C1511      H1514   1.082       .  S
C1512      C1513   1.378   1_554  A
C1512      H1515   1.083   1_554  S
N1516      C1520   1.367       .  A
N1516      C1517   1.357       .  A
N1516      C1605   1.446       .  S
C1517      C1518   1.378       .  A
C1518      C1519   1.364       .  A
C1518      H1521   1.083       .  S
C1519      C1520   1.385       .  A
C1519      H1522   1.082       .  S
O1523      C1539   1.265       .  A
O1523     Zn1529   1.949       .  S
C1524      O1540   1.272       .  A
C1524      O1537   1.267       .  A
O1525      C1538   1.281       .  A
O1525     Cd1532   2.169       .  S
O1526      C1544   1.273       .  A
O1526     Cd1535   2.063       .  S
O1527      C1541   1.276       .  A
O1527     Cd1531   2.098       .  S
O1528      C1539   1.279       .  A
O1528     Cd1531   2.078       .  S
Zn1529     O1540   1.998       .  S
Zn1529     O1542   2.003       .  S
Zn1529     O1534   1.932       .  S
O1530      C1541   1.267       .  A
O1530     Cd1535   2.065       .  S
Cd1531     O1533   2.074       .  S
Cd1531     O1534   1.995       .  S
Cd1532     O1536   2.135       .  S
Cd1532     O1545   2.052       .  S
Cd1532     O1534   1.996       .  S
O1533      C1543   1.276       .  A
O1534     Cd1535   1.993       .  S
Cd1535     O1537   2.011       .  S
O1536      C1543   1.289       .  A
C1538      C1570   1.498       .  S
C1538      O1542   1.267       .  A
C1541      C1577   1.461       .  S
C1544      O1545   1.273       .  A
O1546      C1562   1.273       .  A
O1546     Zn1552   2.002       .  S
C1547      O1563   1.265       .  A
C1547      O1560   1.284       .  A
O1548      C1561   1.284       .  A
O1548     Cd1555   2.175       .  S
O1549      C1567   1.276       .  A
O1549     Cd1558   2.076       .  S
O1550      C1564   1.267       .  A
O1550     Cd1554   2.068       .  S
O1551      C1562   1.273       .  A
O1551     Cd1554   2.054       .  S
Zn1552     O1563   1.969       .  S
Zn1552     O1565   1.978       .  S
Zn1552     O1557   1.928       .  S
O1553      C1564   1.278       .  A
O1553     Cd1558   2.107       .  S
Cd1554     O1556   2.122       .  S
Cd1554     O1557   2.009       .  S
Cd1555     O1559   2.074       .  S
Cd1555     O1568   2.134       .  S
Cd1555     O1557   2.011       .  S
O1556      C1566   1.281       .  A
O1557     Cd1558   2.008       .  S
Cd1558     O1560   2.129       .  S
O1559      C1566   1.275       .  A
C1561      C1573   1.492       .  S
C1561      O1565   1.266       .  A
C1564      C1580   1.460       .  S
C1567      O1568   1.289       .  A
N1569      C1573   1.365       .  A
N1569      C1570   1.368       .  A
N1569      C1606   1.445       .  S
C1570      C1571   1.384       .  A
C1571      C1572   1.370       .  A
C1571      H1574   1.083       .  S
C1572      C1573   1.383       .  A
C1572      H1575   1.083       .  S
N1576      C1577   1.366       .  A
C1577      C1578   1.377       .  A
C1578      H1581   1.083       .  S
C1579      C1580   1.376       .  A
C1579      H1582   1.082       .  S
N1583      C3204   1.360       .  A
N1583      C1587   1.362       .  A
N1583      H1615   1.035       .  S
N1584      C1592   1.357       .  A
N1585      C3206   1.354       .  A
N1585      C1589   1.352       .  A
N1585      H1616   1.032       .  S
N1586      C1594   1.355   1_545  A
C1587      C1595   1.386       .  A
C1587      C1603   1.432       .  A
C1588      N3199   1.358   1_455  A
C1588      C1604   1.429       .  A
C1588      C1596   1.388   1_455  A
C1589      C1597   1.392       .  A
C1589      C1606   1.427       .  A
C1590      N3201   1.358       .  A
C1590      C1605   1.406       .  A
C1590      C1598   1.377       .  A
C1591      C1603   1.441       .  A
C1591      C1599   1.395       .  A
C1592      C1606   1.404       .  A
C1592      C1600   1.371       .  A
C1593      C1601   1.384       .  A
C1593      C1604   1.416       .  A
C1594      C1602   1.388   1_565  A
C1594      C1605   1.430       .  A
C1595      C3212   1.388       .  A
C1595      H1607   1.082       .  S
C1596      C3211   1.384       .  A
C1596      H1608   1.082   1_655  S
C1597      C3214   1.375       .  A
C1597      H1609   1.078       .  S
C1598      C3213   1.370       .  A
C1598      H1610   1.083       .  S
C1599      H1611   1.068       .  S
C1600      H1612   1.082       .  S
C1601      H1613   1.082       .  S
C1602      H1614   1.081   1_545  S
C1617      N1618   1.356       .  A
C1617      N1622   1.355       .  A
C1617      C1966   1.451       .  S
N1618      C1619   1.356       .  A
C1619      N1620   1.358       .  A
C1619      C1831   1.463       .  S
N1620      C1621   1.357       .  A
C1621      N1622   1.353       .  A
C1621      C1627   1.464       .  S
C1623      N1624   1.355       .  A
C1623      N1628   1.358       .  A
C1623      C1928   1.462       .  S
N1624      C1625   1.354       .  A
C1625      N1626   1.356       .  A
C1625      C1823   1.462       .  S
N1626      C1627   1.357       .  A
C1627      N1628   1.360       .  A
C1629      N1630   1.354       .  A
C1629      N1634   1.368       .  A
C1629      C1734   1.462       .  S
N1630      C1631   1.352       .  A
C1631      N1632   1.356       .  A
C1631      C1846   1.457       .  S
N1632      C1633   1.357       .  A
C1633      N1634   1.365       .  A
C1633      C1637   1.485       .  S
C1635      N1636   1.366       .  A
C1635      N1640   1.349       .  A
C1635      C1756   1.458       .  S
N1636      C1637   1.365       .  A
C1637      N1638   1.363       .  A
N1638      C1639   1.359       .  A
C1639      N1640   1.350       .  A
C1639      C1808   1.461       .  S
C1641      N1642   1.366       .  A
C1641      N1646   1.351       .  A
C1641      C1733   1.456       .  S
N1642      C1643   1.366       .  A
C1643      N1644   1.366       .  A
C1643      C1651   1.497       .  S
N1644      C1645   1.368       .  A
C1645      N1646   1.346       .  A
C1645      C1868   1.473       .  S
C1647      N1648   1.354       .  A
C1647      N1652   1.366       .  A
C1647      C1757   1.473       .  S
N1648      C1649   1.354       .  A
C1649      N1650   1.366       .  A
C1649      C1910   1.477       .  S
N1650      C1651   1.369       .  A
C1651      N1652   1.368       .  A
C1653      N1654   1.358       .  A
C1653      N1658   1.355       .  A
C1653      C1883   1.455       .  S
N1654      C1655   1.352       .  A
C1655      N1656   1.366       .  A
C1655      C1951   1.478       .  S
N1656      C1657   1.365       .  A
C1657      N1658   1.356       .  A
C1657      C1663   1.477       .  S
C1659      N1660   1.347       .  A
C1659      N1664   1.361       .  A
C1659      C1911   1.450       .  S
N1660      C1661   1.349       .  A
C1661      N1662   1.360       .  A
C1661      C1943   1.449       .  S
N1662      C1663   1.357       .  A
C1663      N1664   1.362       .  A
C1665      N1666   1.353       .  A
C1665      N2478   1.350       .  A
C1665      C1887   1.436       .  S
N1666      C2475   1.355       .  A
C1667      N2474   1.357   1_545  A
C1667      N1668   1.358       .  A
C1667      C2077   1.467       .  S
N1668      C1669   1.360       .  A
C1669      N1670   1.354       .  A
C1669      C1714   1.463       .  S
N1670      C2473   1.354   1_545  A
C1671      N1672   1.361       .  A
C1671      N2484   1.351       .  A
C1671      C1891   1.451       .  S
N1672      C2481   1.358       .  A
C1673      N2480   1.359   1_545  A
C1673      N1674   1.363       .  A
C1673      C2071   1.485   1_554  S
N1674      C1675   1.366       .  A
C1675      N1676   1.348       .  A
C1675      C1752   1.459       .  S
N1676      C2479   1.347   1_545  A
C1677      N1678   1.353       .  A
C1677      N1682   1.362       .  A
C1677      C1970   1.466       .  S
C1679      N1680   1.369       .  A
C1679      C1888   1.477       .  S
C1681      N1682   1.366       .  A
C1681      C2089   1.487       .  S
C1683      N1684   1.358       .  A
C1683      N1688   1.352       .  A
C1683      C1948   1.453       .  S
N1684      C1685   1.361       .  A
C1685      C2085   1.502   1_554  S
N1686      C1687   1.371       .  A
C1687      C1906   1.487       .  S
C1689      N1690   1.366       .  A
C1689      N2502   1.357   1_545  A
C1689      C1828   1.473       .  S
N1690      C1691   1.369   1_545  A
C1691      N2500   1.369       .  A
C1691      C2911   1.504   1_554  S
N1692      C2499   1.368       .  A
N1692      C1693   1.368       .  A
C1693      N1694   1.353       .  A
C1693      C1947   1.476       .  S
N1694      C2497   1.355       .  A
C1695      N1696   1.354   1_545  A
C1695      N1700   1.371       .  A
C1695      C1850   1.478       .  S
N1696      C2505   1.351       .  A
C1697      N2504   1.349       .  A
C1697      N1698   1.367       .  A
C1697      C1971   1.470       .  S
N1698      C1699   1.368       .  A
C1699      N2508   1.372       .  A
C1699      C2903   1.503       .  S
N1700      C2507   1.374   1_545  A
C1701      N1702   1.364       .  A
C1701      N1706   1.350       .  A
C1701      C1827   1.451       .  S
N1702      C1703   1.362       .  A
C1703      C2115   1.478   1_554  S
N1704      C1705   1.356       .  A
C1705      C1737   1.458       .  S
C1707      N1708   1.347       .  A
C1707      N1712   1.367       .  A
C1707      C1851   1.452       .  S
C1709      N1710   1.353       .  A
C1709      C1729   1.463       .  S
C1711      N1712   1.365       .  A
C1711      C2107   1.476       .  S
O1713      C1729   1.277       .  A
O1713     Zn1719   2.034       .  S
C1714      O1730   1.273       .  A
C1714      O1727   1.278       .  A
O1715      C1728   1.277       .  A
O1715     Cd1722   2.118       .  S
O1716      C1734   1.272       .  A
O1716     Cd1725   2.064       .  S
O1717      C1731   1.267       .  A
O1717     Cd1721   2.059       .  S
O1718      C1729   1.273       .  A
O1718     Cd1721   2.051       .  S
Zn1719     O1730   1.999       .  S
Zn1719     O1732   2.029       .  S
Zn1719     O1724   1.928       .  S
O1720      C1731   1.274       .  A
O1720     Cd1725   2.082       .  S
Cd1721     O1723   2.079       .  S
Cd1721     O1724   2.010       .  S
Cd1722     O1726   2.049       .  S
Cd1722     O1735   2.082       .  S
Cd1722     O1724   2.006       .  S
O1723      C1733   1.275       .  A
O1724     Cd1725   2.000       .  S
Cd1725     O1727   2.076       .  S
O1726      C1733   1.273       .  A
C1728      C1763   1.489       .  S
C1728      O1732   1.277       .  A
C1731      C1770   1.459       .  S
C1734      O1735   1.277       .  A
O1736      C1752   1.264       .  A
O1736     Zn1742   1.959       .  S
C1737      O1753   1.273       .  A
C1737      O1750   1.273       .  A
O1738      C1751   1.281       .  A
O1738     Cd1745   2.146       .  S
O1739      C1757   1.276       .  A
O1739     Cd1748   2.091       .  S
O1740      C1754   1.273       .  A
O1740     Cd1744   2.072       .  S
O1741      C1752   1.279       .  A
O1741     Cd1744   2.087       .  S
Zn1742     O1753   2.005       .  S
Zn1742     O1755   1.982       .  S
Zn1742     O1747   1.916       .  S
O1743      C1754   1.266       .  A
O1743     Cd1748   2.055       .  S
Cd1744     O1746   2.057       .  S
Cd1744     O1747   1.994       .  S
Cd1745     O1749   2.090       .  S
Cd1745     O1758   2.086       .  S
Cd1745     O1747   2.002       .  S
O1746      C1756   1.273       .  A
O1747     Cd1748   1.995       .  S
Cd1748     O1750   2.050       .  S
O1749      C1756   1.281       .  A
C1751      C1760   1.476       .  S
C1751      O1755   1.265       .  A
C1754      C1767   1.454       .  S
C1757      O1758   1.277       .  A
N1759      C2167   1.376   1_554  A
N1759      C1760   1.368       .  A
N1759      C1796   1.460       .  S
C1760      C1761   1.374       .  A
C1761      C2166   1.360   1_554  A
C1761      H1764   1.083       .  S
C1762      C2165   1.357       .  A
C1762      C1763   1.385       .  A
C1762      H1765   1.084       .  S
C1763      N2163   1.375       .  A
N1766      C1770   1.360       .  A
N1766      C1767   1.357       .  A
N1766      C2008   1.446       .  S
C1767      C1768   1.378       .  A
C1768      C1769   1.359       .  A
C1768      H1771   1.082       .  S
C1769      C1770   1.379       .  A
C1769      H1772   1.083       .  S
N1773      C1778   1.364       .  A
N1773      C1777   1.364       .  A
N1773      H1805   1.032       .  S
N1774      C1781   1.354       .  A
N1774      C1782   1.357       .  A
N1775      C1780   1.359       .  A
N1775      C1779   1.359       .  A
N1775      H1806   1.038   1_554  S
N1776      C1783   1.357       .  A
N1776      C1784   1.360       .  A
C1777      C1785   1.387       .  A
C1777      C1793   1.436       .  A
C1778      C1794   1.436       .  A
C1778      C1786   1.387       .  A
C1779      C1787   1.391       .  A
C1779      C1796   1.432       .  A
C1780      C1795   1.414       .  A
C1780      C1788   1.378       .  A
C1781      C1793   1.424       .  A
C1781      C1789   1.388       .  A
C1782      C1796   1.418       .  A
C1782      C1790   1.383       .  A
C1783      C1791   1.388       .  A
C1783      C1794   1.432       .  A
C1784      C1792   1.383       .  A
C1784      C1795   1.424       .  A
C1785      C1786   1.384       .  A
C1785      H1797   1.082       .  S
C1786      H1798   1.082       .  S
C1787      C1788   1.360       .  A
C1787      H1799   1.074       .  S
C1788      H1800   1.079       .  S
C1789      C1790   1.383       .  A
C1789      H1801   1.082   1_554  S
C1790      H1802   1.082   1_554  S
C1791      C1792   1.386       .  A
C1791      H1803   1.082   1_554  S
C1792      H1804   1.082       .  S
C1793      N1860   1.456       .  S
C1794      N1980   1.461       .  S
C1795      N1913   1.458       .  S
O1807      C1823   1.272       .  A
O1807     Zn1813   2.003       .  S
C1808      O1824   1.273       .  A
C1808      O1821   1.278       .  A
O1809      C1822   1.276       .  A
O1809     Cd1816   2.117       .  S
O1810      C1828   1.281       .  A
O1810     Cd1819   2.122       .  S
O1811      C1825   1.271       .  A
O1811     Cd1815   2.071       .  S
O1812      C1823   1.274       .  A
O1812     Cd1815   2.064       .  S
Zn1813     O1824   2.006       .  S
Zn1813     O1826   1.994       .  S
Zn1813     O1818   1.929       .  S
O1814      C1825   1.275       .  A
O1814     Cd1819   2.080       .  S
Cd1815     O1817   2.054       .  S
Cd1815     O1818   1.999       .  S
Cd1816     O1820   2.068       .  S
Cd1816     O1829   2.053       .  S
Cd1816     O1818   2.003       .  S
O1817      C1827   1.272       .  A
O1818     Cd1819   2.000       .  S
Cd1819     O1821   2.068       .  S
O1820      C1827   1.278       .  A
C1822      C1854   1.485       .  S
C1822      O1826   1.273       .  A
C1825      C1861   1.457       .  S
C1828      O1829   1.271       .  A
O1830      C1846   1.271       .  A
O1830     Zn1836   1.981       .  S
C1831      O1847   1.271       .  A
C1831      O1844   1.276       .  A
O1832      C1845   1.278       .  A
O1832     Cd1839   2.140       .  S
O1833      C1851   1.271       .  A
O1833     Cd1842   2.051       .  S
O1834      C1848   1.271       .  A
O1834     Cd1838   2.070       .  S
O1835      C1846   1.278       .  A
O1835     Cd1838   2.076       .  S
Zn1836     O1847   1.993       .  S
Zn1836     O1849   1.982       .  S
Zn1836     O1841   1.904       .  S
O1837      C1848   1.272       .  A
O1837     Cd1842   2.074       .  S
Cd1838     O1840   2.121       .  S
Cd1838     O1841   1.994       .  S
Cd1839     O1843   2.066       .  S
Cd1839     O1852   2.072       .  S
Cd1839     O1841   2.011       .  S
O1840      C1850   1.281       .  A
O1841     Cd1842   1.994       .  S
Cd1842     O1844   2.076       .  S
O1843      C1850   1.275       .  A
C1845      C1857   1.482       .  S
C1845      O1849   1.270       .  A
C1848      C1864   1.456       .  S
C1851      O1852   1.279       .  A
N1853      C1857   1.367       .  A
N1853      C1854   1.371       .  A
N1853      C2007   1.461       .  S
C1854      C1855   1.388       .  A
C1855      C1856   1.361       .  A
C1855      H1858   1.084       .  S
C1856      C1857   1.379       .  A
C1856      H1859   1.083       .  S
N1860      C2268   1.369   1_554  A
N1860      C1861   1.366       .  A
C1861      C1862   1.377       .  A
C1862      C2267   1.350   1_554  A
C1862      H1865   1.084       .  S
C1863      C2266   1.352       .  A
C1863      C1864   1.378       .  A
C1863      H1866   1.083       .  S
C1864      N2264   1.365       .  A
O1867      C1883   1.276       .  A
O1867     Zn1873   2.033       .  S
C1868      O1884   1.266       .  A
C1868      O1881   1.290       .  A
O1869      C1882   1.274       .  A
O1869     Cd1876   2.127       .  S
O1870      C1888   1.279       .  A
O1870     Cd1879   2.101       .  S
O1871      C1885   1.269       .  A
O1871     Cd1875   2.034       .  S
O1872      C1883   1.267       .  A
O1872     Cd1875   2.016       .  S
Zn1873     O1884   1.955       .  S
Zn1873     O1886   2.001       .  S
Zn1873     O1878   1.928       .  S
O1874      C1885   1.286       .  A
O1874     Cd1879   2.169       .  S
Cd1875     O1877   2.046       .  S
Cd1875     O1878   1.972       .  S
Cd1876     O1880   2.029       .  S
Cd1876     O1889   2.099       .  S
Cd1876     O1878   1.994       .  S
O1877      C1887   1.270       .  A
O1878     Cd1879   2.004       .  S
Cd1879     O1881   2.141       .  S
O1880      C1887   1.269       .  A
C1882      C1924   1.479       .  S
C1882      O1886   1.268       .  A
C1885      C1917   1.492       .  S
C1888      O1889   1.284       .  A
O1890      C1906   1.278       .  A
O1890     Zn1896   2.015       .  S
C1891      O1907   1.264       .  A
C1891      O1904   1.272       .  A
O1892      C1905   1.276       .  A
O1892     Cd1899   2.171       .  S
O1893      C1911   1.271       .  A
O1893     Cd1902   2.034       .  S
O1894      C1908   1.287       .  A
O1894     Cd1898   2.158       .  S
O1895      C1906   1.293       .  A
O1895     Cd1898   2.147       .  S
Zn1896     O1907   1.953       .  S
Zn1896     O1909   1.996       .  S
Zn1896     O1901   1.867       .  S
O1897      C1908   1.269       .  A
O1897     Cd1902   2.032       .  S
Cd1898     O1900   2.117       .  S
Cd1898     O1901   1.977       .  S
Cd1899     O1903   2.082       .  S
Cd1899     O1912   2.092       .  S
Cd1899     O1901   2.030       .  S
O1900      C1910   1.281       .  A
O1901     Cd1902   1.964       .  S
Cd1902     O1904   2.072       .  S
O1903      C1910   1.279       .  A
C1905      C1914   1.479       .  S
C1905      O1909   1.257       .  A
C1908      C1921   1.482       .  S
C1911      O1912   1.281       .  A
N1913      C2321   1.372   1_554  A
N1913      C1914   1.375       .  A
C1914      C1915   1.382       .  A
C1915      C2320   1.349   1_554  A
C1915      H1918   1.081       .  S
C1916      C2319   1.361       .  A
C1916      C1917   1.379       .  A
C1916      H1919   1.083       .  S
C1917      N2317   1.367       .  A
N1920      C1924   1.365       .  A
N1920      C1921   1.360       .  A
N1920      C2009   1.447       .  S
C1921      C1922   1.378       .  A
C1922      C1923   1.364       .  A
C1922      H1925   1.083       .  S
C1923      C1924   1.386       .  A
C1923      H1926   1.083       .  S
O1927      C1943   1.265       .  A
O1927     Zn1933   1.953       .  S
C1928      O1944   1.274       .  A
C1928      O1941   1.274       .  A
O1929      C1942   1.278       .  A
O1929     Cd1936   2.143       .  S
O1930      C1948   1.274       .  A
O1930     Cd1939   2.072       .  S
O1931      C1945   1.272       .  A
O1931     Cd1935   2.083       .  S
O1932      C1943   1.277       .  A
O1932     Cd1935   2.067       .  S
Zn1933     O1944   2.020       .  S
Zn1933     O1946   1.999       .  S
Zn1933     O1938   1.929       .  S
O1934      C1945   1.274       .  A
O1934     Cd1939   2.074       .  S
Cd1935     O1937   2.081       .  S
Cd1935     O1938   1.992       .  S
Cd1936     O1940   2.117       .  S
Cd1936     O1949   2.048       .  S
Cd1936     O1938   2.000       .  S
O1937      C1947   1.277       .  A
O1938     Cd1939   1.988       .  S
Cd1939     O1941   2.051       .  S
O1940      C1947   1.285       .  A
C1942      C1974   1.483       .  S
C1942      O1946   1.266       .  A
C1945      C1981   1.461       .  S
C1948      O1949   1.272       .  A
O1950      C1966   1.272       .  A
O1950     Zn1956   1.991       .  S
C1951      O1967   1.267       .  A
C1951      O1964   1.283       .  A
O1952      C1965   1.283       .  A
O1952     Cd1959   2.163       .  S
O1953      C1971   1.275       .  A
O1953     Cd1962   2.068       .  S
O1954      C1968   1.265       .  A
O1954     Cd1958   2.057       .  S
O1955      C1966   1.271       .  A
O1955     Cd1958   2.044       .  S
Zn1956     O1967   1.981       .  S
Zn1956     O1969   1.956       .  S
Zn1956     O1961   1.910       .  S
O1957      C1968   1.277       .  A
O1957     Cd1962   2.093       .  S
Cd1958     O1960   2.088       .  S
Cd1958     O1961   2.007       .  S
Cd1959     O1963   2.075       .  S
Cd1959     O1972   2.117       .  S
Cd1959     O1961   2.014       .  S
O1960      C1970   1.276       .  A
O1961     Cd1962   1.999       .  S
Cd1962     O1964   2.123       .  S
O1963      C1970   1.275       .  A
C1965      C1977   1.488       .  S
C1965      O1969   1.266       .  A
C1968      C1984   1.458       .  S
C1971      O1972   1.286       .  A
N1973      C1977   1.365       .  A
N1973      C1974   1.364       .  A
N1973      C2010   1.444       .  S
C1974      C1975   1.380       .  A
C1975      C1976   1.367       .  A
C1975      H1978   1.083       .  S
C1976      C1977   1.387       .  A
C1976      H1979   1.083       .  S
N1980      C2388   1.369   1_554  A
N1980      C1981   1.371       .  A
C1981      C1982   1.378       .  A
C1982      C2387   1.348   1_554  A
C1982      H1985   1.084       .  S
C1983      C2386   1.353       .  A
C1983      C1984   1.377       .  A
C1983      H1986   1.083       .  S
C1984      N2384   1.365       .  A
N1987      C1991   1.361       .  A
N1987      H2019   1.034       .  S
N1988      C2803   1.353       .  A
N1988      C1996   1.357       .  A
N1989      C1993   1.351   1_455  A
N1989      H2020   1.029   1_455  S
N1990      C2805   1.356       .  A
N1990      C1998   1.356       .  A
C1991      C1999   1.385       .  A
C1991      C2007   1.427       .  A
C1992      C2008   1.429       .  A
C1992      C2000   1.388       .  A
C1993      C2001   1.392       .  A
C1993      C2010   1.426       .  A
C1994      C2009   1.407       .  A
C1994      C2002   1.378       .  A
C1995      N2796   1.355   1_545  A
C1995      C2007   1.441       .  A
C1995      C2003   1.394   1_545  A
C1996      C2010   1.408       .  A
C1996      C2004   1.373       .  A
C1997      N2798   1.354       .  A
C1997      C2005   1.381       .  A
C1997      C2008   1.414       .  A
C1998      C2006   1.388       .  A
C1998      C2009   1.428       .  A
C1999      H2011   1.082       .  S
C2000      H2012   1.082       .  S
C2001      H2013   1.076       .  S
C2002      H2014   1.081       .  S
C2003      C2812   1.368       .  A
C2003      H2015   1.071   1_565  S
C2004      C2811   1.364       .  A
C2004      H2016   1.083       .  S
C2005      C2814   1.371       .  A
C2005      H2017   1.082       .  S
C2006      C2813   1.372       .  A
C2006      H2018   1.080       .  S
C2021      N2022   1.351       .  A
C2021      N2026   1.364       .  A
C2021      C2370   1.469       .  S
N2022      C2023   1.353       .  A
C2023      N2024   1.357       .  A
C2023      C2235   1.452       .  S
N2024      C2025   1.355       .  A
C2025      N2026   1.365       .  A
C2025      C2031   1.474       .  S
C2027      N2028   1.353       .  A
C2027      N2032   1.354       .  A
C2027      C2332   1.444       .  S
N2028      C2029   1.351       .  A
C2029      N2030   1.366       .  A
C2029      C2227   1.468       .  S
N2030      C2031   1.364       .  A
C2031      N2032   1.352       .  A
C2033      N2034   1.348       .  A
C2033      N2038   1.371       .  A
C2033      C2138   1.464       .  S
N2034      C2035   1.348       .  A
C2035      N2036   1.360       .  A
C2035      C2250   1.456       .  S
N2036      C2037   1.361       .  A
C2037      N2038   1.369       .  A
C2037      C2041   1.495       .  S
C2039      N2040   1.367       .  A
C2039      N2044   1.353       .  A
C2039      C2160   1.467       .  S
N2040      C2041   1.366       .  A
C2041      N2042   1.367       .  A
N2042      C2043   1.364       .  A
C2043      N2044   1.352       .  A
C2043      C2212   1.475       .  S
C2045      N2046   1.370       .  A
C2045      N2050   1.353       .  A
C2045      C2137   1.474       .  S
N2046      C2047   1.372       .  A
C2047      N2048   1.364       .  A
C2047      C2055   1.499       .  S
N2048      C2049   1.363       .  A
C2049      N2050   1.351       .  A
C2049      C2272   1.473       .  S
C2051      N2052   1.353       .  A
C2051      N2056   1.364       .  A
C2051      C2161   1.462       .  S
N2052      C2053   1.353       .  A
C2053      N2054   1.368       .  A
C2053      C2314   1.477       .  S
N2054      C2055   1.370       .  A
C2055      N2056   1.364       .  A
C2057      N2058   1.355       .  A
C2057      N2062   1.362       .  A
C2057      C2287   1.465       .  S
N2058      C2059   1.352       .  A
C2059      N2060   1.359       .  A
C2059      C2355   1.465       .  S
N2060      C2061   1.360       .  A
C2061      N2062   1.362       .  A
C2061      C2067   1.476       .  S
C2063      N2064   1.349       .  A
C2063      N2068   1.361       .  A
C2063      C2315   1.448       .  S
N2064      C2065   1.349       .  A
C2065      N2066   1.360       .  A
C2065      C2347   1.457       .  S
N2066      C2067   1.360       .  A
C2067      N2068   1.361       .  A
C2069      N2070   1.365       .  A
C2069      N2882   1.357       .  A
C2069      C2291   1.470       .  S
N2070      C2879   1.367       .  A
C2071      N2878   1.365   1_545  A
C2071      N2072   1.363       .  A
N2072      C2073   1.364       .  A
C2073      N2074   1.346       .  A
C2073      C2118   1.463       .  S
N2074      C2877   1.348   1_545  A
C2075      N2076   1.354       .  A
C2075      N2888   1.356       .  A
C2075      C2295   1.455       .  S
N2076      C2885   1.356       .  A
C2077      N2884   1.358   1_545  A
C2077      N2078   1.361       .  A
N2078      C2079   1.362       .  A
C2079      N2080   1.348       .  A
C2079      C2156   1.462       .  S
N2080      C2883   1.352   1_545  A
C2081      N2082   1.355       .  A
C2081      N2086   1.368       .  A
C2081      C2374   1.478       .  S
C2083      N2084   1.369       .  A
C2083      C2292   1.474       .  S
C2085      N2086   1.374       .  A
C2087      N2088   1.358       .  A
C2087      N2092   1.348       .  A
C2087      C2352   1.441       .  S
N2088      C2089   1.360       .  A
N2090      C2091   1.369       .  A
C2091      C2310   1.479       .  S
C2093      N2094   1.365       .  A
C2093      N2906   1.351   1_545  A
C2093      C2232   1.463       .  S
N2094      C2095   1.367   1_545  A
C2095      N2904   1.376       .  A
C2095      C2507   1.508       .  S
N2096      C2903   1.372       .  A
N2096      C2097   1.371       .  A
C2097      N2098   1.351       .  A
C2097      C2351   1.478       .  S
N2098      C2901   1.352       .  A
C2099      N2100   1.352   1_545  A
C2099      N2104   1.364       .  A
C2099      C2254   1.466       .  S
N2100      C2909   1.350       .  A
C2101      N2908   1.352       .  A
C2101      N2102   1.374       .  A
C2101      C2375   1.485       .  S
N2102      C2103   1.375       .  A
C2103      N2912   1.365       .  A
C2103      C2499   1.507   1_556  S
N2104      C2911   1.368   1_545  A
C2105      N2106   1.367       .  A
C2105      N2110   1.353       .  A
C2105      C2231   1.463       .  S
N2106      C2107   1.364       .  A
N2108      C2109   1.353       .  A
C2109      C2141   1.449       .  S
C2111      N2112   1.349       .  A
C2111      N2116   1.365       .  A
C2111      C2255   1.459       .  S
C2113      N2114   1.358       .  A
C2113      C2133   1.462       .  S
C2115      N2116   1.364       .  A
O2117      C2133   1.272       .  A
O2117     Zn2123   2.010       .  S
C2118      O2134   1.266       .  A
C2118      O2131   1.282       .  A
O2119      C2132   1.282       .  A
O2119     Cd2126   2.146       .  S
O2120      C2138   1.274       .  A
O2120     Cd2129   2.069       .  S
O2121      C2135   1.267       .  A
O2121     Cd2125   2.058       .  S
O2122      C2133   1.275       .  A
O2122     Cd2125   2.061       .  S
Zn2123     O2134   1.967       .  S
Zn2123     O2136   1.988       .  S
Zn2123     O2128   1.936       .  S
O2124      C2135   1.274       .  A
O2124     Cd2129   2.083       .  S
Cd2125     O2127   2.102       .  S
Cd2125     O2128   2.005       .  S
Cd2126     O2130   2.079       .  S
Cd2126     O2139   2.090       .  S
Cd2126     O2128   2.004       .  S
O2127      C2137   1.277       .  A
O2128     Cd2129   2.003       .  S
Cd2129     O2131   2.098       .  S
O2130      C2137   1.276       .  A
C2132      C2167   1.491       .  S
C2132      O2136   1.271       .  A
C2135      C2174   1.459       .  S
C2138      O2139   1.281       .  A
O2140      C2156   1.267       .  A
O2140     Zn2146   1.959       .  S
C2141      O2157   1.270       .  A
C2141      O2154   1.271       .  A
O2142      C2155   1.279       .  A
O2142     Cd2149   2.137       .  S
O2143      C2161   1.275       .  A
O2143     Cd2152   2.068       .  S
O2144      C2158   1.279       .  A
O2144     Cd2148   2.102       .  S
O2145      C2156   1.283       .  A
O2145     Cd2148   2.103       .  S
Zn2146     O2157   1.991       .  S
Zn2146     O2159   1.946       .  S
Zn2146     O2151   1.901       .  S
O2147      C2158   1.267       .  A
O2147     Cd2152   2.031       .  S
Cd2148     O2150   2.077       .  S
Cd2148     O2151   1.989       .  S
Cd2149     O2153   2.088       .  S
Cd2149     O2162   2.078       .  S
Cd2149     O2151   2.005       .  S
O2150      C2160   1.274       .  A
O2151     Cd2152   1.980       .  S
Cd2152     O2154   2.044       .  S
O2153      C2160   1.280       .  A
C2155      C2164   1.472       .  S
C2155      O2159   1.266       .  A
C2158      C2171   1.460       .  S
C2161      O2162   1.276       .  A
N2163      C2164   1.366       .  A
N2163      C2200   1.464       .  S
C2164      C2165   1.378       .  A
C2165      H2168   1.083       .  S
C2166      C2167   1.391       .  A
C2166      H2169   1.084       .  S
N2170      C2174   1.360       .  A
N2170      C2171   1.359       .  A
N2170      C2412   1.444       .  S
C2171      C2172   1.380       .  A
C2172      C2173   1.358       .  A
C2172      H2175   1.083       .  S
C2173      C2174   1.378       .  A
C2173      H2176   1.082       .  S
N2177      C2182   1.362       .  A
N2177      C2181   1.360       .  A
N2177      H2209   1.033       .  S
N2178      C2185   1.356       .  A
N2178      C2186   1.358       .  A
N2179      C2184   1.361       .  A
N2179      C2183   1.356       .  A
N2179      H2210   1.042       .  S
N2180      C2187   1.356       .  A
N2180      C2188   1.356       .  A
C2181      C2189   1.386       .  A
C2181      C2197   1.431       .  A
C2182      C2198   1.434       .  A
C2182      C2190   1.388       .  A
C2183      C2191   1.392       .  A
C2183      C2200   1.432       .  A
C2184      C2199   1.410       .  A
C2184      C2192   1.376       .  A
C2185      C2197   1.428       .  A
C2185      C2193   1.389       .  A
C2186      C2200   1.420       .  A
C2186      C2194   1.383       .  A
C2187      C2195   1.381       .  A
C2187      C2198   1.417       .  A
C2188      C2196   1.388       .  A
C2188      C2199   1.425       .  A
C2189      C2190   1.385       .  A
C2189      H2201   1.082       .  S
C2190      H2202   1.082       .  S
C2191      C2192   1.365       .  A
C2191      H2203   1.076       .  S
C2192      H2204   1.078       .  S
C2193      C2194   1.384       .  A
C2193      H2205   1.082       .  S
C2194      H2206   1.082       .  S
C2195      C2196   1.370       .  A
C2195      H2207   1.081       .  S
C2196      H2208   1.078       .  S
C2197      N2264   1.454       .  S
C2198      N2384   1.456       .  S
C2199      N2317   1.455       .  S
O2211      C2227   1.268       .  A
O2211     Zn2217   1.979       .  S
C2212      O2228   1.274       .  A
C2212      O2225   1.279       .  A
O2213      C2226   1.277       .  A
O2213     Cd2220   2.119       .  S
O2214      C2232   1.278       .  A
O2214     Cd2223   2.105       .  S
O2215      C2229   1.275       .  A
O2215     Cd2219   2.082       .  S
O2216      C2227   1.281       .  A
O2216     Cd2219   2.100       .  S
Zn2217     O2228   2.025       .  S
Zn2217     O2230   1.967       .  S
Zn2217     O2222   1.924       .  S
O2218      C2229   1.273       .  A
O2218     Cd2223   2.065       .  S
Cd2219     O2221   2.074       .  S
Cd2219     O2222   1.994       .  S
Cd2220     O2224   2.083       .  S
Cd2220     O2233   2.046       .  S
Cd2220     O2222   2.007       .  S
O2221      C2231   1.273       .  A
O2222     Cd2223   2.000       .  S
Cd2223     O2225   2.089       .  S
O2224      C2231   1.279       .  A
C2226      C2258   1.474       .  S
C2226      O2230   1.268       .  A
C2229      C2265   1.458       .  S
C2232      O2233   1.271       .  A
O2234      C2250   1.269       .  A
O2234     Zn2240   1.977       .  S
C2235      O2251   1.269       .  A
C2235      O2248   1.273       .  A
O2236      C2249   1.280       .  A
O2236     Cd2243   2.157       .  S
O2237      C2255   1.270       .  A
O2237     Cd2246   2.044       .  S
O2238      C2252   1.275       .  A
O2238     Cd2242   2.083       .  S
O2239      C2250   1.279       .  A
O2239     Cd2242   2.075       .  S
Zn2240     O2251   1.973       .  S
Zn2240     O2253   1.957       .  S
Zn2240     O2245   1.911       .  S
O2241      C2252   1.270       .  A
O2241     Cd2246   2.075       .  S
Cd2242     O2244   2.100       .  S
Cd2242     O2245   1.994       .  S
Cd2243     O2247   2.062       .  S
Cd2243     O2256   2.099       .  S
Cd2243     O2245   2.016       .  S
O2244      C2254   1.278       .  A
O2245     Cd2246   1.990       .  S
Cd2246     O2248   2.054       .  S
O2247      C2254   1.275       .  A
C2249      C2261   1.485       .  S
C2249      O2253   1.266       .  A
C2252      C2268   1.461       .  S
C2255      O2256   1.283       .  A
N2257      C2261   1.371       .  A
N2257      C2258   1.368       .  A
N2257      C2411   1.455       .  S
C2258      C2259   1.384       .  A
C2259      C2260   1.360       .  A
C2259      H2262   1.084       .  S
C2260      C2261   1.385       .  A
C2260      H2263   1.083       .  S
N2264      C2265   1.365       .  A
C2265      C2266   1.379       .  A
C2266      H2269   1.083       .  S
C2267      C2268   1.379       .  A
C2267      H2270   1.084       .  S
O2271      C2287   1.276       .  A
O2271     Zn2277   2.024       .  S
C2272      O2288   1.269       .  A
C2272      O2285   1.280       .  A
O2273      C2286   1.276       .  A
O2273     Cd2280   2.137       .  S
O2274      C2292   1.279       .  A
O2274     Cd2283   2.092       .  S
O2275      C2289   1.276       .  A
O2275     Cd2279   2.095       .  S
O2276      C2287   1.279       .  A
O2276     Cd2279   2.069       .  S
Zn2277     O2288   1.998       .  S
Zn2277     O2290   2.012       .  S
Zn2277     O2282   1.945       .  S
O2278      C2289   1.276       .  A
O2278     Cd2283   2.094       .  S
Cd2279     O2281   2.107       .  S
Cd2279     O2282   2.007       .  S
Cd2280     O2284   2.060       .  S
Cd2280     O2293   2.102       .  S
Cd2280     O2282   2.007       .  S
O2281      C2291   1.278       .  A
O2282     Cd2283   1.995       .  S
Cd2283     O2285   2.103       .  S
O2284      C2291   1.272       .  A
C2286      C2328   1.482       .  S
C2286      O2290   1.268       .  A
C2289      C2321   1.465       .  S
C2292      O2293   1.285       .  A
O2294      C2310   1.267       .  A
O2294     Zn2300   1.961       .  S
C2295      O2311   1.274       .  A
C2295      O2308   1.268       .  A
O2296      C2309   1.279       .  A
O2296     Cd2303   2.132       .  S
O2297      C2315   1.272       .  A
O2297     Cd2306   2.054       .  S
O2298      C2312   1.286       .  A
O2298     Cd2302   2.162       .  S
O2299      C2310   1.290       .  A
O2299     Cd2302   2.152       .  S
Zn2300     O2311   2.027       .  S
Zn2300     O2313   1.999       .  S
Zn2300     O2305   1.921       .  S
O2301      C2312   1.267       .  A
O2301     Cd2306   2.020       .  S
Cd2302     O2304   2.109       .  S
Cd2302     O2305   2.006       .  S
Cd2303     O2307   2.091       .  S
Cd2303     O2316   2.056       .  S
Cd2303     O2305   1.983       .  S
O2304      C2314   1.281       .  A
O2305     Cd2306   1.974       .  S
Cd2306     O2308   2.024       .  S
O2307      C2314   1.283       .  A
C2309      C2318   1.483       .  S
C2309      O2313   1.271       .  A
C2312      C2325   1.485       .  S
C2315      O2316   1.271       .  A
N2317      C2318   1.372       .  A
C2318      C2319   1.386       .  A
C2319      H2322   1.084       .  S
C2320      C2321   1.374       .  A
C2320      H2323   1.083       .  S
N2324      C2328   1.368       .  A
N2324      C2325   1.360       .  A
N2324      C2413   1.448       .  S
C2325      C2326   1.379       .  A
C2326      C2327   1.364       .  A
C2326      H2329   1.083       .  S
C2327      C2328   1.385       .  A
C2327      H2330   1.083       .  S
O2331      C2347   1.270       .  A
O2331     Zn2337   1.975       .  S
C2332      O2348   1.270       .  A
C2332      O2345   1.269       .  A
O2333      C2346   1.281       .  A
O2333     Cd2340   2.156       .  S
O2334      C2352   1.271       .  A
O2334     Cd2343   2.047       .  S
O2335      C2349   1.276       .  A
O2335     Cd2339   2.093       .  S
O2336      C2347   1.279       .  A
O2336     Cd2339   2.075       .  S
Zn2337     O2348   1.982       .  S
Zn2337     O2350   1.971       .  S
Zn2337     O2342   1.907       .  S
O2338      C2349   1.268       .  A
O2338     Cd2343   2.063       .  S
Cd2339     O2341   2.082       .  S
Cd2339     O2342   1.986       .  S
Cd2340     O2344   2.115       .  S
Cd2340     O2353   2.042       .  S
Cd2340     O2342   2.009       .  S
O2341      C2351   1.276       .  A
O2342     Cd2343   1.994       .  S
Cd2343     O2345   2.031       .  S
O2344      C2351   1.285       .  A
C2346      C2378   1.493       .  S
C2346      O2350   1.269       .  A
C2349      C2385   1.460       .  S
C2352      O2353   1.272       .  A
O2354      C2370   1.271       .  A
O2354     Zn2360   2.002       .  S
C2355      O2371   1.270       .  A
C2355      O2368   1.278       .  A
O2356      C2369   1.282       .  A
O2356     Cd2363   2.156       .  S
O2357      C2375   1.276       .  A
O2357     Cd2366   2.091       .  S
O2358      C2372   1.275       .  A
O2358     Cd2362   2.092       .  S
O2359      C2370   1.280       .  A
O2359     Cd2362   2.097       .  S
Zn2360     O2371   1.989       .  S
Zn2360     O2373   1.969       .  S
Zn2360     O2365   1.936       .  S
O2361      C2372   1.274       .  A
O2361     Cd2366   2.082       .  S
Cd2362     O2364   2.130       .  S
Cd2362     O2365   2.012       .  S
Cd2363     O2367   2.061       .  S
Cd2363     O2376   2.128       .  S
Cd2363     O2365   2.013       .  S
O2364      C2374   1.282       .  A
O2365     Cd2366   2.002       .  S
Cd2366     O2368   2.085       .  S
O2367      C2374   1.274       .  A
C2369      C2381   1.486       .  S
C2369      O2373   1.267       .  A
C2372      C2388   1.456       .  S
C2375      O2376   1.287       .  A
N2377      C2381   1.366       .  A
N2377      C2378   1.367       .  A
N2377      C2414   1.449       .  S
C2378      C2379   1.387       .  A
C2379      C2380   1.366       .  A
C2379      H2382   1.083       .  S
C2380      C2381   1.383       .  A
C2380      H2383   1.083       .  S
N2384      C2385   1.366       .  A
C2385      C2386   1.379       .  A
C2386      H2389   1.083       .  S
C2387      C2388   1.376       .  A
C2387      H2390   1.084       .  S
N2391      C2395   1.364       .  A
N2391      H2423   1.007       .  S
N2392      C3207   1.355       .  A
N2392      C2400   1.358       .  A
N2393      C2397   1.351   1_455  A
N2393      H2424   1.029       .  S
N2394      C3209   1.355       .  A
N2394      C2402   1.357       .  A
C2395      C2403   1.385       .  A
C2395      C2411   1.429       .  A
C2396      C2412   1.428       .  A
C2396      C2404   1.388       .  A
C2397      C2405   1.394   1_655  A
C2397      C2414   1.432       .  A
C2398      C2413   1.406       .  A
C2398      C2406   1.377       .  A
C2399      N3200   1.352   1_545  A
C2399      C2411   1.436       .  A
C2399      C2407   1.395   1_545  A
C2400      C2414   1.411       .  A
C2400      C2408   1.374       .  A
C2401      N3202   1.354       .  A
C2401      C2409   1.381       .  A
C2401      C2412   1.412       .  A
C2402      C2410   1.387       .  A
C2402      C2413   1.427       .  A
C2403      H2415   1.082       .  S
C2404      H2416   1.082       .  S
C2405      H2417   1.073   1_455  S
C2406      H2418   1.083       .  S
C2407      C3216   1.363       .  A
C2407      H2419   1.071       .  S
C2408      C3215   1.366       .  A
C2408      H2420   1.082       .  S
C2409      C3218   1.369       .  A
C2409      H2421   1.082       .  S
C2410      C3217   1.372       .  A
C2410      H2422   1.080       .  S
C2425      N2426   1.348       .  A
C2425      N2430   1.355       .  A
C2425      C2774   1.442       .  S
N2426      C2427   1.348       .  A
C2427      N2428   1.367       .  A
C2427      C2639   1.463       .  S
N2428      C2429   1.365       .  A
C2429      N2430   1.354       .  A
C2429      C2435   1.475       .  S
C2431      N2432   1.352       .  A
C2431      N2436   1.361       .  A
C2431      C2736   1.460       .  S
N2432      C2433   1.350       .  A
C2433      N2434   1.359       .  A
C2433      C2631   1.454       .  S
N2434      C2435   1.355       .  A
C2435      N2436   1.363       .  A
C2437      N2438   1.353       .  A
C2437      N2442   1.367       .  A
C2437      C2542   1.466       .  S
N2438      C2439   1.352       .  A
C2439      N2440   1.363       .  A
C2439      C2654   1.470       .  S
N2440      C2441   1.364       .  A
C2441      N2442   1.367       .  A
C2441      C2445   1.493       .  S
C2443      N2444   1.367       .  A
C2443      N2448   1.352       .  A
C2443      C2564   1.462       .  S
N2444      C2445   1.365       .  A
C2445      N2446   1.363       .  A
N2446      C2447   1.363       .  A
C2447      N2448   1.351       .  A
C2447      C2616   1.463       .  S
C2449      N2450   1.362       .  A
C2449      N2454   1.347       .  A
C2449      C2541   1.440       .  S
N2450      C2451   1.361       .  A
C2451      N2452   1.369       .  A
C2451      C2459   1.499       .  S
N2452      C2453   1.372       .  A
C2453      N2454   1.344       .  A
C2453      C2676   1.472       .  S
C2455      N2456   1.353       .  A
C2455      N2460   1.369       .  A
C2455      C2565   1.480       .  S
N2456      C2457   1.353       .  A
C2457      N2458   1.364       .  A
C2457      C2718   1.471       .  S
N2458      C2459   1.366       .  A
C2459      N2460   1.373       .  A
C2461      N2462   1.354       .  A
C2461      N2466   1.359       .  A
C2461      C2691   1.452       .  S
N2462      C2463   1.350       .  A
C2463      N2464   1.362       .  A
C2463      C2759   1.466       .  S
N2464      C2465   1.361       .  A
C2465      N2466   1.358       .  A
C2465      C2471   1.476       .  S
C2467      N2468   1.341       .  A
C2467      N2472   1.362       .  A
C2467      C2719   1.443       .  S
N2468      C2469   1.344       .  A
C2469      N2470   1.359       .  A
C2469      C2751   1.442       .  S
N2470      C2471   1.359       .  A
C2471      N2472   1.363       .  A
C2473      N2474   1.355       .  A
C2473      C2695   1.448       .  S
C2475      N2476   1.356       .  A
C2475      C2885   1.463       .  S
N2476      C2477   1.360       .  A
C2477      N2478   1.350       .  A
C2477      C2522   1.453       .  S
C2479      N2480   1.361       .  A
C2479      C2699   1.443       .  S
C2481      N2482   1.364       .  A
C2481      C2879   1.485   1_554  S
N2482      C2483   1.365       .  A
C2483      N2484   1.351       .  A
C2483      C2560   1.467       .  S
C2485      N2486   1.351       .  A
C2485      N2490   1.365       .  A
C2485      C2778   1.468       .  S
C2487      N2488   1.368       .  A
C2487      C2696   1.481       .  S
C2489      N2490   1.369       .  A
C2489      C2897   1.501       .  S
C2491      N2492   1.360       .  A
C2491      N2496   1.354       .  A
C2491      C2756   1.451       .  S
N2492      C2493   1.363       .  A
C2493      C2893   1.497   1_554  S
N2494      C2495   1.375       .  A
C2495      C2714   1.488       .  S
C2497      N2498   1.370       .  A
C2497      C2636   1.481       .  S
N2498      C2499   1.373       .  A
N2500      C2501   1.369       .  A
C2501      N2502   1.353       .  A
C2501      C2755   1.478       .  S
C2503      N2504   1.352       .  A
C2503      N2508   1.368       .  A
C2503      C2658   1.474       .  S
C2505      N2506   1.366       .  A
C2505      C2779   1.469       .  S
N2506      C2507   1.366       .  A
C2509      N2510   1.363       .  A
C2509      N2514   1.353       .  A
C2509      C2635   1.461       .  S
N2510      C2511   1.361       .  A
C2511      C2923   1.475   1_554  S
N2512      C2513   1.355       .  A
C2513      C2545   1.449       .  S
C2515      N2516   1.350       .  A
C2515      N2520   1.368       .  A
C2515      C2659   1.469       .  S
C2517      N2518   1.356       .  A
C2517      C2537   1.460       .  S
C2519      N2520   1.368       .  A
C2519      C2915   1.489       .  S
O2521      C2537   1.274       .  A
O2521     Zn2527   2.029       .  S
C2522      O2538   1.269       .  A
C2522      O2535   1.280       .  A
O2523      C2536   1.279       .  A
O2523     Cd2530   2.134       .  S
O2524      C2542   1.275       .  A
O2524     Cd2533   2.085       .  S
O2525      C2539   1.268       .  A
O2525     Cd2529   2.035       .  S
O2526      C2537   1.270       .  A
O2526     Cd2529   2.036       .  S
Zn2527     O2538   1.958       .  S
Zn2527     O2540   2.004       .  S
Zn2527     O2532   1.917       .  S
O2528      C2539   1.275       .  A
O2528     Cd2533   2.101       .  S
Cd2529     O2531   2.040       .  S
Cd2529     O2532   1.975       .  S
Cd2530     O2534   2.051       .  S
Cd2530     O2543   2.079       .  S
Cd2530     O2532   1.990       .  S
O2531      C2541   1.271       .  A
O2532     Cd2533   2.000       .  S
Cd2533     O2535   2.078       .  S
O2534      C2541   1.273       .  A
C2536      C2571   1.492       .  S
C2536      O2540   1.274       .  A
C2539      C2578   1.460       .  S
C2542      O2543   1.279       .  A
O2544      C2560   1.267       .  A
O2544     Zn2550   1.983       .  S
C2545      O2561   1.269       .  A
C2545      O2558   1.276       .  A
O2546      C2559   1.282       .  A
O2546     Cd2553   2.155       .  S
O2547      C2565   1.279       .  A
O2547     Cd2556   2.110       .  S
O2548      C2562   1.273       .  A
O2548     Cd2552   2.076       .  S
O2549      C2560   1.278       .  A
O2549     Cd2552   2.089       .  S
Zn2550     O2561   1.971       .  S
Zn2550     O2563   1.944       .  S
Zn2550     O2555   1.913       .  S
O2551      C2562   1.268       .  A
O2551     Cd2556   2.065       .  S
Cd2552     O2554   2.060       .  S
Cd2552     O2555   1.994       .  S
Cd2553     O2557   2.095       .  S
Cd2553     O2566   2.094       .  S
Cd2553     O2555   2.012       .  S
O2554      C2564   1.273       .  A
O2555     Cd2556   1.999       .  S
Cd2556     O2558   2.059       .  S
O2557      C2564   1.282       .  A
C2559      C2568   1.477       .  S
C2559      O2563   1.264       .  A
C2562      C2575   1.453       .  S
C2565      O2566   1.279       .  A
N2567      C2975   1.372   1_554  A
N2567      C2568   1.367       .  A
N2567      C2604   1.459       .  S
C2568      C2569   1.378       .  A
C2569      C2974   1.360   1_554  A
C2569      H2572   1.083       .  S
C2570      C2973   1.362       .  A
C2570      C2571   1.388       .  A
C2570      H2573   1.084       .  S
C2571      N2971   1.375       .  A
N2574      C2578   1.363       .  A
N2574      C2575   1.362       .  A
N2574      C2816   1.450       .  S
C2575      C2576   1.376       .  A
C2576      C2577   1.354       .  A
C2576      H2579   1.083       .  S
C2577      C2578   1.381       .  A
C2577      H2580   1.083       .  S
N2581      C2586   1.363       .  A
N2581      C2585   1.365       .  A
N2581      H2613   1.034       .  S
N2582      C2589   1.357       .  A
N2582      C2590   1.359       .  A
N2583      C2588   1.358       .  A
N2583      C2587   1.357       .  A
N2583      H2614   1.035       .  S
N2584      C2591   1.357       .  A
N2584      C2592   1.360       .  A
C2585      C2593   1.385       .  A
C2585      C2601   1.435       .  A
C2586      C2602   1.436       .  A
C2586      C2594   1.387       .  A
C2587      C2595   1.394       .  A
C2587      C2604   1.436       .  A
C2588      C2603   1.411       .  A
C2588      C2596   1.377       .  A
C2589      C2601   1.428       .  A
C2589      C2597   1.387       .  A
C2590      C2604   1.422       .  A
C2590      C2598   1.383       .  A
C2591      C2599   1.387       .  A
C2591      C2602   1.429       .  A
C2592      C2600   1.384       .  A
C2592      C2603   1.424       .  A
C2593      C2594   1.384       .  A
C2593      H2605   1.082       .  S
C2594      H2606   1.082       .  S
C2595      C2596   1.359       .  A
C2595      H2607   1.072       .  S
C2596      H2608   1.081       .  S
C2597      C2598   1.381       .  A
C2597      H2609   1.082   1_554  S
C2598      H2610   1.082   1_554  S
C2599      C2600   1.385       .  A
C2599      H2611   1.082       .  S
C2600      H2612   1.082       .  S
C2601      N2668   1.463       .  S
C2602      N2788   1.460       .  S
C2603      N2721   1.454       .  S
O2615      C2631   1.266       .  A
O2615     Zn2621   1.952       .  S
C2616      O2632   1.269       .  A
C2616      O2629   1.280       .  A
O2617      C2630   1.281       .  A
O2617     Cd2624   2.160       .  S
O2618      C2636   1.284       .  A
O2618     Cd2627   2.130       .  S
O2619      C2633   1.275       .  A
O2619     Cd2623   2.086       .  S
O2620      C2631   1.277       .  A
O2620     Cd2623   2.076       .  S
Zn2621     O2632   1.983       .  S
Zn2621     O2634   1.952       .  S
Zn2621     O2626   1.903       .  S
O2622      C2633   1.274       .  A
O2622     Cd2627   2.082       .  S
Cd2623     O2625   2.053       .  S
Cd2623     O2626   1.997       .  S
Cd2624     O2628   2.101       .  S
Cd2624     O2637   2.079       .  S
Cd2624     O2626   2.022       .  S
O2625      C2635   1.272       .  A
O2626     Cd2627   1.993       .  S
Cd2627     O2629   2.093       .  S
O2628      C2635   1.282       .  A
C2630      C2662   1.487       .  S
C2630      O2634   1.266       .  A
C2633      C2669   1.458       .  S
C2636      O2637   1.277       .  A
O2638      C2654   1.271       .  A
O2638     Zn2644   1.998       .  S
C2639      O2655   1.266       .  A
C2639      O2652   1.280       .  A
O2640      C2653   1.281       .  A
O2640     Cd2647   2.154       .  S
O2641      C2659   1.274       .  A
O2641     Cd2650   2.076       .  S
O2642      C2656   1.274       .  A
O2642     Cd2646   2.077       .  S
O2643      C2654   1.281       .  A
O2643     Cd2646   2.098       .  S
Zn2644     O2655   1.970       .  S
Zn2644     O2657   1.945       .  S
Zn2644     O2649   1.924       .  S
O2645      C2656   1.274       .  A
O2645     Cd2650   2.085       .  S
Cd2646     O2648   2.123       .  S
Cd2646     O2649   2.003       .  S
Cd2647     O2651   2.065       .  S
Cd2647     O2660   2.099       .  S
Cd2647     O2649   2.016       .  S
O2648      C2658   1.281       .  A
O2649     Cd2650   1.997       .  S
Cd2650     O2652   2.090       .  S
O2651      C2658   1.274       .  A
C2653      C2665   1.487       .  S
C2653      O2657   1.266       .  A
C2656      C2672   1.459       .  S
C2659      O2660   1.282       .  A
N2661      C2665   1.374       .  A
N2661      C2662   1.370       .  A
N2661      C2815   1.455       .  S
C2662      C2663   1.381       .  A
C2663      C2664   1.360       .  A
C2663      H2666   1.083       .  S
C2664      C2665   1.388       .  A
C2664      H2667   1.084       .  S
N2668      C3076   1.374   1_554  A
N2668      C2669   1.371       .  A
C2669      C2670   1.376       .  A
C2670      C3075   1.345   1_554  A
C2670      H2673   1.084       .  S
C2671      C3074   1.351       .  A
C2671      C2672   1.378       .  A
C2671      H2674   1.083       .  S
C2672      N3072   1.366       .  A
O2675      C2691   1.270       .  A
O2675     Zn2681   2.004       .  S
C2676      O2692   1.262       .  A
C2676      O2689   1.292       .  A
O2677      C2690   1.277       .  A
O2677     Cd2684   2.132       .  S
O2678      C2696   1.279       .  A
O2678     Cd2687   2.100       .  S
O2679      C2693   1.268       .  A
O2679     Cd2683   2.044       .  S
O2680      C2691   1.269       .  A
O2680     Cd2683   2.030       .  S
Zn2681     O2692   1.936       .  S
Zn2681     O2694   1.955       .  S
Zn2681     O2686   1.921       .  S
O2682      C2693   1.286       .  A
O2682     Cd2687   2.159       .  S
Cd2683     O2685   2.058       .  S
Cd2683     O2686   1.987       .  S
Cd2684     O2688   2.048       .  S
Cd2684     O2697   2.115       .  S
Cd2684     O2686   2.001       .  S
O2685      C2695   1.272       .  A
O2686     Cd2687   1.999       .  S
Cd2687     O2689   2.152       .  S
O2688      C2695   1.272       .  A
C2690      C2732   1.480       .  S
C2690      O2694   1.266       .  A
C2693      C2725   1.484       .  S
C2696      O2697   1.285       .  A
O2698      C2714   1.279       .  A
O2698     Zn2704   2.009       .  S
C2699      O2715   1.260       .  A
C2699      O2712   1.273       .  A
O2700      C2713   1.276       .  A
O2700     Cd2707   2.184       .  S
O2701      C2719   1.271       .  A
O2701     Cd2710   2.028       .  S
O2702      C2716   1.290       .  A
O2702     Cd2706   2.177       .  S
O2703      C2714   1.296       .  A
O2703     Cd2706   2.153       .  S
Zn2704     O2715   1.931       .  S
Zn2704     O2717   1.987       .  S
Zn2704     O2709   1.841       .  S
O2705      C2716   1.268       .  A
O2705     Cd2710   2.014       .  S
Cd2706     O2708   2.104       .  S
Cd2706     O2709   1.952       .  S
Cd2707     O2711   2.081       .  S
Cd2707     O2720   2.079       .  S
Cd2707     O2709   2.017       .  S
O2708      C2718   1.280       .  A
O2709     Cd2710   1.955       .  S
Cd2710     O2712   2.070       .  S
O2711      C2718   1.280       .  A
C2713      C2722   1.480       .  S
C2713      O2717   1.254       .  A
C2716      C2729   1.489       .  S
C2719      O2720   1.279       .  A
N2721      C3129   1.369   1_554  A
N2721      C2722   1.372       .  A
C2722      C2723   1.385       .  A
C2723      C3128   1.350   1_554  A
C2723      H2726   1.082       .  S
C2724      C3127   1.364       .  A
C2724      C2725   1.377       .  A
C2724      H2727   1.083       .  S
C2725      N3125   1.363       .  A
N2728      C2732   1.365       .  A
N2728      C2729   1.358       .  A
N2728      C2817   1.444       .  S
C2729      C2730   1.380       .  A
C2730      C2731   1.366       .  A
C2730      H2733   1.083       .  S
C2731      C2732   1.390       .  A
C2731      H2734   1.084       .  S
O2735      C2751   1.264       .  A
O2735     Zn2741   1.949       .  S
C2736      O2752   1.272       .  A
C2736      O2749   1.275       .  A
O2737      C2750   1.278       .  A
O2737     Cd2744   2.148       .  S
O2738      C2756   1.276       .  A
O2738     Cd2747   2.079       .  S
O2739      C2753   1.272       .  A
O2739     Cd2743   2.076       .  S
O2740      C2751   1.275       .  A
O2740     Cd2743   2.047       .  S
Zn2741     O2752   2.006       .  S
Zn2741     O2754   1.988       .  S
Zn2741     O2746   1.932       .  S
O2742      C2753   1.273       .  A
O2742     Cd2747   2.086       .  S
Cd2743     O2745   2.064       .  S
Cd2743     O2746   1.981       .  S
Cd2744     O2748   2.133       .  S
Cd2744     O2757   2.038       .  S
Cd2744     O2746   1.999       .  S
O2745      C2755   1.273       .  A
O2746     Cd2747   1.992       .  S
Cd2747     O2749   2.058       .  S
O2748      C2755   1.287       .  A
C2750      C2782   1.482       .  S
C2750      O2754   1.264       .  A
C2753      C2789   1.457       .  S
C2756      O2757   1.271       .  A
O2758      C2774   1.268       .  A
O2758     Zn2764   1.963       .  S
C2759      O2775   1.266       .  A
C2759      O2772   1.279       .  A
O2760      C2773   1.282       .  A
O2760     Cd2767   2.159       .  S
O2761      C2779   1.275       .  A
O2761     Cd2770   2.065       .  S
O2762      C2776   1.269       .  A
O2762     Cd2766   2.066       .  S
O2763      C2774   1.273       .  A
O2763     Cd2766   2.050       .  S
Zn2764     O2775   1.967       .  S
Zn2764     O2777   1.955       .  S
Zn2764     O2769   1.907       .  S
O2765      C2776   1.275       .  A
O2765     Cd2770   2.084       .  S
Cd2766     O2768   2.091       .  S
Cd2766     O2769   1.999       .  S
Cd2767     O2771   2.075       .  S
Cd2767     O2780   2.112       .  S
Cd2767     O2769   2.006       .  S
O2768      C2778   1.276       .  A
O2769     Cd2770   1.992       .  S
Cd2770     O2772   2.098       .  S
O2771      C2778   1.276       .  A
C2773      C2785   1.486       .  S
C2773      O2777   1.266       .  A
C2776      C2792   1.456       .  S
C2779      O2780   1.285       .  A
N2781      C2785   1.363       .  A
N2781      C2782   1.363       .  A
N2781      C2818   1.443       .  S
C2782      C2783   1.381       .  A
C2783      C2784   1.369       .  A
C2783      H2786   1.082       .  S
C2784      C2785   1.386       .  A
C2784      H2787   1.083       .  S
N2788      C3196   1.371   1_554  A
N2788      C2789   1.370       .  A
C2789      C2790   1.376       .  A
C2790      C3195   1.346   1_554  A
C2790      H2793   1.084       .  S
C2791      C3194   1.355       .  A
C2791      C2792   1.378       .  A
C2791      H2794   1.083       .  S
C2792      N3192   1.363       .  A
N2795      C2799   1.359       .  A
N2795      H2827   1.029       .  S
N2796      C2804   1.358       .  A
N2797      C2801   1.348   1_455  A
N2797      H2828   1.028   1_455  S
N2798      C2806   1.354   1_545  A
C2799      C2807   1.384       .  A
C2799      C2815   1.425       .  A
C2800      C2816   1.429       .  A
C2800      C2808   1.388       .  A
C2801      C2809   1.394       .  A
C2801      C2818   1.427       .  A
C2802      C2817   1.408       .  A
C2802      C2810   1.379       .  A
C2803      C2815   1.437       .  A
C2803      C2811   1.394       .  A
C2804      C2818   1.412       .  A
C2804      C2812   1.374       .  A
C2805      C2813   1.382       .  A
C2805      C2816   1.418       .  A
C2806      C2814   1.390   1_565  A
C2806      C2817   1.430       .  A
C2807      H2819   1.082       .  S
C2808      H2820   1.082       .  S
C2809      H2821   1.077       .  S
C2810      H2822   1.083       .  S
C2811      H2823   1.071       .  S
C2812      H2824   1.083       .  S
C2813      H2825   1.082       .  S
C2814      H2826   1.078   1_545  S
C2829      N2830   1.353       .  A
C2829      N2834   1.359       .  A
C2829      C3178   1.455       .  S
N2830      C2831   1.353       .  A
C2831      N2832   1.354       .  A
C2831      C3043   1.447       .  S
N2832      C2833   1.350       .  A
C2833      N2834   1.357       .  A
C2833      C2839   1.460       .  S
C2835      N2836   1.349       .  A
C2835      N2840   1.353       .  A
C2835      C3140   1.439       .  S
N2836      C2837   1.349       .  A
C2837      N2838   1.360       .  A
C2837      C3035   1.454       .  S
N2838      C2839   1.359       .  A
C2839      N2840   1.352       .  A
C2841      N2842   1.350       .  A
C2841      N2846   1.366       .  A
C2841      C2946   1.458       .  S
N2842      C2843   1.350       .  A
C2843      N2844   1.360       .  A
C2843      C3058   1.466       .  S
N2844      C2845   1.366       .  A
C2845      N2846   1.364       .  A
C2845      C2849   1.486       .  S
C2847      N2848   1.371       .  A
C2847      N2852   1.350       .  A
C2847      C2968   1.461       .  S
N2848      C2849   1.369       .  A
C2849      N2850   1.355       .  A
N2850      C2851   1.354       .  A
C2851      N2852   1.348       .  A
C2851      C3020   1.448       .  S
C2853      N2854   1.369       .  A
C2853      N2858   1.351       .  A
C2853      C2945   1.470       .  S
N2854      C2855   1.370       .  A
C2855      N2856   1.366       .  A
C2855      C2863   1.502       .  S
N2856      C2857   1.366       .  A
C2857      N2858   1.350       .  A
C2857      C3080   1.471       .  S
C2859      N2860   1.356       .  A
C2859      N2864   1.368       .  A
C2859      C2969   1.477       .  S
N2860      C2861   1.354       .  A
C2861      N2862   1.366       .  A
C2861      C3122   1.478       .  S
N2862      C2863   1.369       .  A
C2863      N2864   1.369       .  A
C2865      N2866   1.349       .  A
C2865      N2870   1.360       .  A
C2865      C3095   1.456       .  S
N2866      C2867   1.351       .  A
C2867      N2868   1.364       .  A
C2867      C3163   1.460       .  S
N2868      C2869   1.362       .  A
C2869      N2870   1.358       .  A
C2869      C2875   1.480       .  S
C2871      N2872   1.353       .  A
C2871      N2876   1.359       .  A
C2871      C3123   1.451       .  S
N2872      C2873   1.350       .  A
C2873      N2874   1.363       .  A
C2873      C3155   1.467       .  S
N2874      C2875   1.361       .  A
C2875      N2876   1.362       .  A
C2877      N2878   1.362       .  A
C2877      C3099   1.452       .  S
C2879      N2880   1.360       .  A
N2880      C2881   1.361       .  A
C2881      N2882   1.355       .  A
C2881      C2926   1.472       .  S
C2883      N2884   1.355       .  A
C2883      C3103   1.448       .  S
C2885      N2886   1.359       .  A
N2886      C2887   1.360       .  A
C2887      N2888   1.353       .  A
C2887      C2964   1.466       .  S
C2889      N2890   1.351       .  A
C2889      N2894   1.362       .  A
C2889      C3182   1.466       .  S
C2891      N2892   1.369       .  A
C2891      C3100   1.477       .  S
C2893      N2894   1.366       .  A
C2895      N2896   1.363       .  A
C2895      N2900   1.351       .  A
C2895      C3160   1.450       .  S
N2896      C2897   1.364       .  A
N2898      C2899   1.370       .  A
C2899      C3118   1.477       .  S
C2901      N2902   1.363       .  A
C2901      C3040   1.462       .  S
N2902      C2903   1.365       .  A
N2904      C2905   1.374       .  A
C2905      N2906   1.348       .  A
C2905      C3159   1.483       .  S
C2907      N2908   1.353       .  A
C2907      N2912   1.362       .  A
C2907      C3062   1.462       .  S
C2909      N2910   1.372       .  A
C2909      C3183   1.478       .  S
N2910      C2911   1.373       .  A
C2913      N2914   1.368       .  A
C2913      N2918   1.352       .  A
C2913      C3039   1.463       .  S
N2914      C2915   1.365       .  A
N2916      C2917   1.355       .  A
C2917      C2949   1.446       .  S
C2919      N2920   1.352       .  A
C2919      N2924   1.367       .  A
C2919      C3063   1.462       .  S
C2921      N2922   1.358       .  A
C2921      C2941   1.463       .  S
C2923      N2924   1.366       .  A
O2925      C2941   1.274       .  A
O2925     Zn2931   2.018       .  S
C2926      O2942   1.272       .  A
C2926      O2939   1.280       .  A
O2927      C2940   1.280       .  A
O2927     Cd2934   2.137       .  S
O2928      C2946   1.273       .  A
O2928     Cd2937   2.064       .  S
O2929      C2943   1.270       .  A
O2929     Cd2933   2.048       .  S
O2930      C2941   1.275       .  A
O2930     Cd2933   2.057       .  S
Zn2931     O2942   1.999       .  S
Zn2931     O2944   1.993       .  S
Zn2931     O2936   1.926       .  S
O2932      C2943   1.275       .  A
O2932     Cd2937   2.094       .  S
Cd2933     O2935   2.093       .  S
Cd2933     O2936   1.992       .  S
Cd2934     O2938   2.078       .  S
Cd2934     O2947   2.081       .  S
Cd2934     O2936   2.010       .  S
O2935      C2945   1.276       .  A
O2936     Cd2937   2.003       .  S
Cd2937     O2939   2.100       .  S
O2938      C2945   1.275       .  A
C2940      C2975   1.489       .  S
C2940      O2944   1.274       .  A
C2943      C2982   1.461       .  S
C2946      O2947   1.280       .  A
O2948      C2964   1.269       .  A
O2948     Zn2954   1.985       .  S
C2949      O2965   1.268       .  A
C2949      O2962   1.275       .  A
O2950      C2963   1.282       .  A
O2950     Cd2957   2.165       .  S
O2951      C2969   1.278       .  A
O2951     Cd2960   2.103       .  S
O2952      C2966   1.273       .  A
O2952     Cd2956   2.078       .  S
O2953      C2964   1.277       .  A
O2953     Cd2956   2.089       .  S
Zn2954     O2965   1.959       .  S
Zn2954     O2967   1.960       .  S
Zn2954     O2959   1.915       .  S
O2955      C2966   1.271       .  A
O2955     Cd2960   2.070       .  S
Cd2956     O2958   2.055       .  S
Cd2956     O2959   2.002       .  S
Cd2957     O2961   2.097       .  S
Cd2957     O2970   2.090       .  S
Cd2957     O2959   2.020       .  S
O2958      C2968   1.273       .  A
O2959     Cd2960   1.999       .  S
Cd2960     O2962   2.060       .  S
O2961      C2968   1.283       .  A
C2963      C2972   1.486       .  S
C2963      O2967   1.266       .  A
C2966      C2979   1.458       .  S
C2969      O2970   1.277       .  A
N2971      C2972   1.367       .  A
N2971      C3008   1.459       .  S
C2972      C2973   1.379       .  A
C2973      H2976   1.083       .  S
C2974      C2975   1.389       .  A
C2974      H2977   1.084       .  S
N2978      C2982   1.366       .  A
N2978      C2979   1.365       .  A
N2978      C3220   1.452       .  S
C2979      C2980   1.377       .  A
C2980      C2981   1.352       .  A
C2980      H2983   1.083       .  S
C2981      C2982   1.380       .  A
C2981      H2984   1.084       .  S
N2985      C2990   1.359       .  A
N2985      C2989   1.359       .  A
N2985      H3017   1.030       .  S
N2986      C2993   1.356       .  A
N2986      C2994   1.358       .  A
N2987      C2992   1.360       .  A
N2987      C2991   1.357       .  A
N2987      H3018   1.037       .  S
N2988      C2995   1.355       .  A
N2988      C2996   1.353       .  A
C2989      C2997   1.386       .  A
C2989      C3005   1.429       .  A
C2990      C3006   1.431       .  A
C2990      C2998   1.387       .  A
C2991      C2999   1.395       .  A
C2991      C3008   1.438       .  A
C2992      C3007   1.410       .  A
C2992      C3000   1.375       .  A
C2993      C3005   1.427       .  A
C2993      C3001   1.387       .  A
C2994      C3008   1.420       .  A
C2994      C3002   1.382       .  A
C2995      C3003   1.382       .  A
C2995      C3006   1.415       .  A
C2996      C3004   1.389       .  A
C2996      C3007   1.425       .  A
C2997      C2998   1.384       .  A
C2997      H3009   1.082       .  S
C2998      H3010   1.082       .  S
C2999      C3000   1.369       .  A
C2999      H3011   1.074       .  S
C3000      H3012   1.082       .  S
C3001      C3002   1.379       .  A
C3001      H3013   1.082       .  S
C3002      H3014   1.082       .  S
C3003      C3004   1.372       .  A
C3003      H3015   1.082       .  S
C3004      H3016   1.079       .  S
C3005      N3072   1.453       .  S
C3006      N3192   1.451       .  S
C3007      N3125   1.450       .  S
O3019      C3035   1.267       .  A
O3019     Zn3025   1.964       .  S
C3020      O3036   1.267       .  A
C3020      O3033   1.273       .  A
O3021      C3034   1.279       .  A
O3021     Cd3028   2.142       .  S
O3022      C3040   1.277       .  A
O3022     Cd3031   2.084       .  S
O3023      C3037   1.272       .  A
O3023     Cd3027   2.079       .  S
O3024      C3035   1.277       .  A
O3024     Cd3027   2.069       .  S
Zn3025     O3036   1.966       .  S
Zn3025     O3038   1.951       .  S
Zn3025     O3030   1.904       .  S
O3026      C3037   1.271       .  A
O3026     Cd3031   2.056       .  S
Cd3027     O3029   2.064       .  S
Cd3027     O3030   1.991       .  S
Cd3028     O3032   2.090       .  S
Cd3028     O3041   2.065       .  S
Cd3028     O3030   2.013       .  S
O3029      C3039   1.273       .  A
O3030     Cd3031   1.992       .  S
Cd3031     O3033   2.058       .  S
O3032      C3039   1.281       .  A
C3034      C3066   1.478       .  S
C3034      O3038   1.266       .  A
C3037      C3073   1.456       .  S
C3040      O3041   1.275       .  A
O3042      C3058   1.273       .  A
O3042     Zn3048   2.021       .  S
C3043      O3059   1.270       .  A
C3043      O3056   1.274       .  A
O3044      C3057   1.277       .  A
O3044     Cd3051   2.126       .  S
O3045      C3063   1.273       .  A
O3045     Cd3054   2.071       .  S
O3046      C3060   1.276       .  A
O3046     Cd3050   2.084       .  S
O3047      C3058   1.277       .  A
O3047     Cd3050   2.069       .  S
Zn3048     O3059   1.966       .  S
Zn3048     O3061   2.013       .  S
Zn3048     O3053   1.927       .  S
O3049      C3060   1.271       .  A
O3049     Cd3054   2.086       .  S
Cd3050     O3052   2.101       .  S
Cd3050     O3053   1.989       .  S
Cd3051     O3055   2.047       .  S
Cd3051     O3064   2.081       .  S
Cd3051     O3053   2.003       .  S
O3052      C3062   1.280       .  A
O3053     Cd3054   2.005       .  S
Cd3054     O3056   2.051       .  S
O3055      C3062   1.272       .  A
C3057      C3069   1.491       .  S
C3057      O3061   1.274       .  A
C3060      C3076   1.462       .  S
C3063      O3064   1.280       .  A
N3065      C3069   1.373       .  A
N3065      C3066   1.365       .  A
N3065      C3219   1.461       .  S
C3066      C3067   1.380       .  A
C3067      C3068   1.360       .  A
C3067      H3070   1.083       .  S
C3068      C3069   1.387       .  A
C3068      H3071   1.084       .  S
N3072      C3073   1.364       .  A
C3073      C3074   1.378       .  A
C3074      H3077   1.084       .  S
C3075      C3076   1.378       .  A
C3075      H3078   1.084       .  S
O3079      C3095   1.269       .  A
O3079     Zn3085   1.975       .  S
C3080      O3096   1.267       .  A
C3080      O3093   1.282       .  A
O3081      C3094   1.280       .  A
O3081     Cd3088   2.157       .  S
O3082      C3100   1.276       .  A
O3082     Cd3091   2.084       .  S
O3083      C3097   1.273       .  A
O3083     Cd3087   2.077       .  S
O3084      C3095   1.277       .  A
O3084     Cd3087   2.075       .  S
Zn3085     O3096   1.977       .  S
Zn3085     O3098   1.930       .  S
Zn3085     O3090   1.904       .  S
O3086      C3097   1.277       .  A
O3086     Cd3091   2.092       .  S
Cd3087     O3089   2.084       .  S
Cd3087     O3090   2.004       .  S
Cd3088     O3092   2.038       .  S
Cd3088     O3101   2.111       .  S
Cd3088     O3090   2.016       .  S
O3089      C3099   1.276       .  A
O3090     Cd3091   1.982       .  S
Cd3091     O3093   2.106       .  S
O3092      C3099   1.271       .  A
C3094      C3136   1.487       .  S
C3094      O3098   1.264       .  A
C3097      C3129   1.462       .  S
C3100      O3101   1.285       .  A
O3102      C3118   1.266       .  A
O3102     Zn3108   1.956       .  S
C3103      O3119   1.273       .  A
C3103      O3116   1.268       .  A
O3104      C3117   1.276       .  A
O3104     Cd3111   2.129       .  S
O3105      C3123   1.272       .  A
O3105     Cd3114   2.064       .  S
O3106      C3120   1.283       .  A
O3106     Cd3110   2.147       .  S
O3107      C3118   1.290       .  A
O3107     Cd3110   2.149       .  S
Zn3108     O3119   2.016       .  S
Zn3108     O3121   1.990       .  S
Zn3108     O3113   1.923       .  S
O3109      C3120   1.267       .  A
O3109     Cd3114   2.048       .  S
Cd3110     O3112   2.100       .  S
Cd3110     O3113   2.002       .  S
Cd3111     O3115   2.101       .  S
Cd3111     O3124   2.052       .  S
Cd3111     O3113   1.993       .  S
O3112      C3122   1.280       .  A
O3113     Cd3114   1.984       .  S
Cd3114     O3116   2.022       .  S
O3115      C3122   1.284       .  A
C3117      C3126   1.481       .  S
C3117      O3121   1.268       .  A
C3120      C3133   1.480       .  S
C3123      O3124   1.272       .  A
N3125      C3126   1.368       .  A
C3126      C3127   1.388       .  A
C3127      H3130   1.084       .  S
C3128      C3129   1.374       .  A
C3128      H3131   1.084       .  S
N3132      C3136   1.364       .  A
N3132      C3133   1.361       .  A
N3132      C3221   1.444       .  S
C3133      C3134   1.375       .  A
C3134      C3135   1.363       .  A
C3134      H3137   1.082       .  S
C3135      C3136   1.393       .  A
C3135      H3138   1.084       .  S
O3139      C3155   1.268       .  A
O3139     Zn3145   1.961       .  S
C3140      O3156   1.267       .  A
C3140      O3153   1.268       .  A
O3141      C3154   1.285       .  A
O3141     Cd3148   2.177       .  S
O3142      C3160   1.272       .  A
O3142     Cd3151   2.060       .  S
O3143      C3157   1.276       .  A
O3143     Cd3147   2.090       .  S
O3144      C3155   1.284       .  A
O3144     Cd3147   2.114       .  S
Zn3145     O3156   1.967       .  S
Zn3145     O3158   1.962       .  S
Zn3145     O3150   1.909       .  S
O3146      C3157   1.266       .  A
O3146     Cd3151   2.041       .  S
Cd3147     O3149   2.085       .  S
Cd3147     O3150   1.993       .  S
Cd3148     O3152   2.133       .  S
Cd3148     O3161   2.053       .  S
Cd3148     O3150   2.008       .  S
O3149      C3159   1.276       .  A
O3150     Cd3151   1.999       .  S
Cd3151     O3153   2.027       .  S
O3152      C3159   1.288       .  A
C3154      C3186   1.495       .  S
C3154      O3158   1.267       .  A
C3157      C3193   1.455       .  S
C3160      O3161   1.273       .  A
O3162      C3178   1.270       .  A
O3162     Zn3168   1.977       .  S
C3163      O3179   1.267       .  A
C3163      O3176   1.279       .  A
O3164      C3177   1.285       .  A
O3164     Cd3171   2.181       .  S
O3165      C3183   1.274       .  A
O3165     Cd3174   2.072       .  S
O3166      C3180   1.274       .  A
O3166     Cd3170   2.070       .  S
O3167      C3178   1.276       .  A
O3167     Cd3170   2.066       .  S
Zn3168     O3179   1.971       .  S
Zn3168     O3181   1.949       .  S
Zn3168     O3173   1.912       .  S
O3169      C3180   1.274       .  A
O3169     Cd3174   2.094       .  S
Cd3170     O3172   2.094       .  S
Cd3170     O3173   1.991       .  S
Cd3171     O3175   2.070       .  S
Cd3171     O3184   2.132       .  S
Cd3171     O3173   2.014       .  S
O3172      C3182   1.278       .  A
O3173     Cd3174   1.993       .  S
Cd3174     O3176   2.083       .  S
O3175      C3182   1.275       .  A
C3177      C3189   1.496       .  S
C3177      O3181   1.266       .  A
C3180      C3196   1.462       .  S
C3183      O3184   1.289       .  A
N3185      C3189   1.367       .  A
N3185      C3186   1.366       .  A
N3185      C3222   1.444       .  S
C3186      C3187   1.384       .  A
C3187      C3188   1.368       .  A
C3187      H3190   1.083       .  S
C3188      C3189   1.387       .  A
C3188      H3191   1.083       .  S
N3192      C3193   1.360       .  A
C3193      C3194   1.378       .  A
C3194      H3197   1.083       .  S
C3195      C3196   1.378       .  A
C3195      H3198   1.084       .  S
N3199      C3203   1.360       .  A
N3199      H3231   1.034       .  S
N3200      C3208   1.356       .  A
N3201      C3205   1.354   1_455  A
N3201      H3232   0.996   1_455  S
N3202      C3210   1.354   1_545  A
C3203      C3211   1.385       .  A
C3203      C3219   1.426       .  A
C3204      C3220   1.432       .  A
C3204      C3212   1.387       .  A
C3205      C3213   1.394   1_655  A
C3205      C3222   1.431       .  A
C3206      C3221   1.408       .  A
C3206      C3214   1.379       .  A
C3207      C3219   1.440       .  A
C3207      C3215   1.395       .  A
C3208      C3222   1.407       .  A
C3208      C3216   1.374       .  A
C3209      C3217   1.384       .  A
C3209      C3220   1.419       .  A
C3210      C3218   1.390   1_565  A
C3210      C3221   1.427       .  A
C3211      H3223   1.082       .  S
C3212      H3224   1.082       .  S
C3213      H3225   1.074   1_455  S
C3214      H3226   1.083       .  S
C3215      H3227   1.072       .  S
C3216      H3228   1.083       .  S
C3217      H3229   1.082       .  S
C3218      H3230   1.079   1_545  S
