geometry optimzed in LAMMPS
_audit_creation_date              2020-11-30 
_audit_creation_method            'lammps2cif' 
_symmetry_space_group_name_H-M    'P1' 
_symmetry_Int_Tables_number       1 
_symmetry_cell_setting            triclinic 
loop_ 
_symmetry_equiv_pos_as_xyz 
  x,y,z 
_cell_length_a                    36.99969929935251 
_cell_length_b                    36.36819352362489 
_cell_length_c                    36.79474716929423 
_cell_angle_alpha                 90.9743777042322 
_cell_angle_beta                  90.79954001866288 
_cell_angle_gamma                 90.66501062836124 
loop_ 
_atom_site_label 
_atom_site_type_symbol 
_atom_site_fract_x 
_atom_site_fract_y 
_atom_site_fract_z 
_atom_site_charge 
C1          C  0.36775109  0.36609118  0.48098146     0.05040
C2          C  0.37363965  0.32848753  0.47289107    -0.11110
C3          C  0.34421428  0.30574045  0.46149393     0.02540
C4          C  0.31180984  0.32382917  0.95251834    -0.09630
C5          C  0.30354893  0.35637531  0.97160520     0.05040
C6          C  0.33226690  0.37900838  0.98330756    -0.09050
H7          H  0.40006222  0.31696175  0.47783470     0.10630
H8          H  0.28942424  0.30836693  0.94044492     0.08160
H9          H  0.32694901  0.40520970  0.99655383     0.08010
C10         C  0.36932144  0.20987301  0.99619951     0.05040
C11         C  0.37285892  0.24341057  0.97741494    -0.11110
C12         C  0.34223357  0.26546733  0.97139422     0.02540
C13         C  0.30869568  0.25109951  0.98247206    -0.09630
C14         C  0.30631214  0.22205499  0.00668849     0.05040
C15         C  0.33654231  0.20048194  0.01272536    -0.09050
H16         H  0.39909689  0.25212688  0.96787219     0.10630
H17         H  0.28385008  0.26523317  0.97708404     0.08160
H18         H  0.33468028  0.17685393  0.03019542     0.08010
C19         C  0.20891563  0.21081295  0.01796443     0.05040
C20         C  0.24437973  0.19774646  0.01610030    -0.11110
C21         C  0.27302211  0.22010420  0.02852260     0.02540
C22         C  0.26468888  0.25250507  0.04778686    -0.09630
C23         C  0.23243053  0.27078107  0.03869229     0.05040
C24         C  0.20307159  0.24832223  0.02654108    -0.09050
H25         H  0.24980102  0.17168405  0.00262857     0.10630
H26         H  0.28700905  0.26789637  0.06010791     0.08160
H27         H  0.17679035  0.26007086  0.02134296     0.08010
C28         C  0.20792720  0.36748541  0.00607579     0.05040
C29         C  0.24051046  0.37672395  0.98900554    -0.11110
C30         C  0.27052889  0.35450849  0.99392653     0.02540
C31         C  0.26818583  0.32512133  0.01773541    -0.09630
C32         C  0.23470577  0.31109056  0.02927974     0.05040
C33         C  0.20429644  0.33362984  0.02425714    -0.09050
H34         H  0.24235185  0.40066720  0.97195658     0.10630
H35         H  0.29289412  0.31055197  0.02254587     0.08160
H36         H  0.17815050  0.32503941  0.03415202     0.08010
C37         C  0.36683949  0.03152666  0.32980817     0.05040
C38         C  0.33016474  0.03203733  0.33973032    -0.11110
C39         C  0.30330203  0.02746924  0.31282600     0.02540
C40         C  0.31395695  0.01887519  0.27721283    -0.09630
C41         C  0.34940119  0.02659108  0.26614838     0.05040
C42         C  0.37640565  0.03108314  0.29286906    -0.09050
H43         H  0.32273600  0.03818050  0.36754673     0.10630
H44         H  0.29303793  0.01564855  0.25635364     0.08160
H45         H  0.40407401  0.03654460  0.28509193     0.08010
C46         C  0.20279435  0.03969892  0.32677938     0.05040
C47         C  0.23830442  0.02882879  0.33547612    -0.11110
C48         C  0.26686918  0.04401508  0.31620515     0.02540
C49         C  0.25901491  0.07202629  0.29204508    -0.09630
C50         C  0.22528340  0.07303705  0.27419887     0.05040
C51         C  0.19592788  0.05821907  0.29364955    -0.09050
H52         H  0.24356360  0.00979149  0.35720328     0.10630
H53         H  0.28138814  0.08791410  0.28313327     0.08160
H54         H  0.16846181  0.06175527  0.28391548     0.08010
C55         C  0.20987883  0.05867545  0.17235585     0.05040
C56         C  0.20017188  0.06419527  0.20913102    -0.11110
C57         C  0.22483889  0.08136871  0.23378779     0.02540
C58         C  0.25604335  0.09713025  0.21839877    -0.09630
C59         C  0.27116131  0.08085829  0.18702851     0.05040
C60         C  0.24646107  0.06364978  0.16239423    -0.09050
H61         H  0.17427756  0.05418766  0.21841087     0.10630
H62         H  0.27204342  0.11661331  0.23434225     0.08160
H63         H  0.25556074  0.05320997  0.13639384     0.08010
C64         C  0.36387109  0.03856613  0.16519003     0.05040
C65         C  0.37219124  0.02755367  0.20086969    -0.11110
C66         C  0.35270184  0.04273331  0.22946444     0.02540
C67         C  0.32879913  0.07088556  0.22155284    -0.09630
C68         C  0.31129744  0.07204651  0.18754781     0.05040
C69         C  0.33088551  0.05715758  0.15808283    -0.09050
H70         H  0.39388196  0.00855189  0.20625658     0.10630
H71         H  0.31981094  0.08676507  0.24409588     0.08160
H72         H  0.32144623  0.06081910  0.13041299     0.08010
C73         C  0.03824034  0.20170455  0.32544472     0.05040
C74         C  0.02586831  0.23736054  0.33305247    -0.11110
C75         C  0.04098052  0.26645651  0.31431131     0.02540
C76         C  0.07010641  0.25928500  0.29184652    -0.09630
C77         C  0.07326893  0.22485665  0.27464365     0.05040
C78         C  0.05859430  0.19478795  0.29359651    -0.09050
H79         H  0.00597533  0.24242377  0.35383690     0.10630
H80         H  0.08527656  0.28248761  0.28333982     0.08160
H81         H  0.06364349  0.16685767  0.28454567     0.08010
C82         C  0.02920654  0.36699672  0.32847852     0.05040
C83         C  0.03036025  0.37722580  0.29183498    -0.11110
C84         C  0.02633972  0.35016168  0.26467685     0.02540
C85         C  0.01767836  0.31413681  0.27481080    -0.09630
C86         C  0.02429585  0.30295296  0.31059993     0.05040
C87         C  0.02812247  0.32976897  0.33794125    -0.09050
H88         H  0.03687885  0.40530376  0.28469443     0.10630
H89         H  0.01540815  0.29307770  0.25357606     0.08160
H90         H  0.03306864  0.32177988  0.36580956     0.08010
C91         C  0.06125010  0.20985000  0.17318786     0.05040
C92         C  0.06626234  0.19960875  0.20976389    -0.11110
C93         C  0.08308336  0.22435147  0.23475137     0.02540
C94         C  0.09903587  0.25621297  0.22000862    -0.09630
C95         C  0.08401932  0.27157397  0.18826737     0.05040
C96         C  0.06728449  0.24672799  0.16335123    -0.09050
H97         H  0.05566487  0.17347204  0.21876659     0.10630
H98         H  0.11734734  0.27268740  0.23675755     0.08160
H99         H  0.05750875  0.25607707  0.13726049     0.08010
C100        C  0.04003003  0.36313255  0.16455528     0.05040
C101        C  0.02826275  0.37194639  0.19973835    -0.11110
C102        C  0.04372879  0.35379899  0.22892865     0.02540
C103        C  0.07256945  0.33041692  0.22213251    -0.09630
C104        C  0.07514538  0.31218720  0.18837068     0.05040
C105        C  0.06031853  0.33081583  0.15836633    -0.09050
H106        H  0.00826562  0.39300454  0.20431888     0.10630
H107        H  0.08804403  0.32214566  0.24510277     0.08160
H108        H  0.06493669  0.32096833  0.13090716     0.08010
O109        O  0.43579277  0.47709951  0.99750725    -0.84570
O110        O  0.14067735  0.47863451  0.00215037    -0.84740
O111        O  0.03735295  0.43387263  0.44084427    -0.86410
O112        O  0.03609640  0.43325810  0.05667042    -0.85170
O113        O  0.03674361  0.47720283  0.10233870    -0.84760
O114        O  0.03607011  0.47822576  0.39720986    -0.86130
O115        O  0.09598697  0.43414962  0.00144133    -0.84600
O116        O  0.47991621  0.43311127  0.99741943    -0.84190
Zr117      Zr  0.03801467  0.46473840  0.99973724     2.84310
O118        O  0.07505363  0.00188684  0.03740308    -1.06170
O119        O  0.00055222  0.00036848  0.46325274    -1.06900
C120        C  0.44676508  0.44345567  0.99672752     1.08530
C121        C  0.12929229  0.44487841  0.00220548     1.08480
C122        C  0.03642529  0.44472806  0.40774819     1.11460
C123        C  0.03565471  0.44357158  0.09019390     1.09240
H124        H  0.08949889  0.48545121  0.44855409     0.34800
O125        O  0.07483901  0.00103775  0.46373196    -1.27120
H126        H  0.48622706  0.48551069  0.05103496     0.34470
O127        O  0.00143959  0.00115417  0.03662156    -1.28800
O128        O  0.14093775  0.09991797  0.00124082    -0.84570
O129        O  0.43665167  0.09882170  0.00108583    -0.86070
O130        O  0.09464356  0.03640708  0.39688962    -0.84650
O131        O  0.09805102  0.03869268  0.10478776    -0.84700
O132        O  0.47787974  0.03667482  0.10272831    -0.84410
O133        O  0.47842892  0.03638930  0.39756645    -0.84210
O134        O  0.03650974  0.14068631  0.44061560    -0.84580
O135        O  0.03961776  0.14271635  0.06125641    -0.84050
O136        O  0.03618265  0.09480346  0.39687300    -0.85110
O137        O  0.03868951  0.09837121  0.10514907    -0.84270
O138        O  0.13986549  0.03690012  0.44043437    -0.84670
O139        O  0.43460535  0.03752731  0.44120137    -0.84390
O140        O  0.43427494  0.03630131  0.05751691    -0.84040
O141        O  0.14183000  0.03985788  0.06090067    -0.84450
O142        O  0.09677262  0.14392865  0.00115598    -0.84740
O143        O  0.48118306  0.14348084  0.00175545    -0.86080
Zr144      Zr  0.11182677  0.03889112  0.00095494     2.83100
Zr145      Zr  0.46501603  0.03804415  0.00009976     2.83500
Zr146      Zr  0.03735782  0.03738721  0.42796119     2.84090
Zr147      Zr  0.03821636  0.03819961  0.07460353     2.83360
Zr148      Zr  0.03865439  0.11238546  0.00116919     2.84220
O149        O  0.00206932  0.07544371  0.03774168    -1.06650
O150        O  0.07505767  0.07554999  0.46425717    -1.06150
C151        C  0.12994473  0.13358083  0.00148608     1.08510
C152        C  0.44794159  0.13265283  0.00142564     1.11120
C153        C  0.12805665  0.03598306  0.40706166     1.08680
C154        C  0.13134280  0.03970691  0.09431649     1.09040
C155        C  0.44461396  0.03573814  0.09101138     1.08620
C156        C  0.44531645  0.03680212  0.40803625     1.08170
C157        C  0.03556917  0.12862440  0.40723930     1.08600
C158        C  0.03965718  0.13207597  0.09463062     1.08110
H159        H  0.48613191  0.09007906  0.44892622     0.34790
O160        O  0.00129502  0.07507487  0.46406089    -1.27750
H161        H  0.09003761  0.09091106  0.05334373     0.34810
O162        O  0.07485121  0.07530256  0.03793848    -1.29130
C163        C  0.03445463  0.38932898  0.13649923    -0.11360
C164        C  0.03388445  0.41455731  0.11581393    -0.12920
C165        C  0.04258192  0.16017053  0.12265533    -0.11360
C166        C  0.04881501  0.18313258  0.14614850    -0.12920
C167        C  0.03327427  0.39431398  0.35638764    -0.11360
C168        C  0.03539828  0.41715499  0.38008435    -0.12920
C169        C  0.03361785  0.15448224  0.37845146    -0.11360
C170        C  0.03368463  0.17437771  0.35264831    -0.12920
C171        C  0.41603166  0.03388892  0.11706697    -0.11360
C172        C  0.39084900  0.03396690  0.13763689    -0.12900
C173        C  0.15928370  0.04214372  0.12232784    -0.11360
C174        C  0.18269709  0.04741095  0.14537006    -0.12920
C175        C  0.17494326  0.03471300  0.35335479    -0.11360
C176        C  0.15398769  0.03436254  0.37826861    -0.12920
C177        C  0.39455198  0.03492680  0.35728697    -0.11360
C178        C  0.41788186  0.03629836  0.38034304    -0.12920
C179        C  0.17850376  0.39293378  0.00429757    -0.11360
C180        C  0.15591318  0.41653202  0.00320387    -0.12920
C181        C  0.15686721  0.16230374  0.00358097    -0.11360
C182        C  0.17955994  0.18602207  0.00844068    -0.12920
C183        C  0.42133229  0.16100871  0.00072035    -0.11360
C184        C  0.39889186  0.18471163  0.99902360    -0.12920
C185        C  0.39715223  0.39105815  0.98963074    -0.11360
C186        C  0.41986555  0.41478931  0.99413761    -0.12920
C187        C  0.36775536  0.36606621  0.98096842     0.05040
C188        C  0.37364026  0.32846089  0.97288495    -0.11110
C189        C  0.34421293  0.30571474  0.96149137     0.02540
C190        C  0.31180929  0.32385379  0.45252475    -0.09630
C191        C  0.30354444  0.35639457  0.47161867     0.05040
C192        C  0.33226061  0.37902801  0.48332651    -0.09050
H193        H  0.40006132  0.31693350  0.97783298     0.10630
H194        H  0.28942565  0.30839223  0.44044658     0.08160
H195        H  0.32694028  0.40522619  0.49657777     0.08010
C196        C  0.36932371  0.20988472  0.49617358     0.05040
C197        C  0.37286308  0.24342994  0.47740074    -0.11110
C198        C  0.34223774  0.26549007  0.47138789     0.02540
C199        C  0.30870025  0.25111960  0.48246338    -0.09630
C200        C  0.30631684  0.22206646  0.50666929     0.05040
C201        C  0.33654495  0.20048955  0.51269656    -0.09050
H202        H  0.39910128  0.25214893  0.46786090     0.10630
H203        H  0.28385468  0.26525550  0.47708188     0.08160
H204        H  0.33468169  0.17685508  0.53015817     0.08010
C205        C  0.20892398  0.21080956  0.51794816     0.05040
C206        C  0.24438914  0.19774793  0.51607940    -0.11110
C207        C  0.27302875  0.22010755  0.52850404     0.02540
C208        C  0.26469296  0.25250368  0.54777457    -0.09630
C209        C  0.23243252  0.27077706  0.53868393     0.05040
C210        C  0.20307562  0.24831622  0.52653140    -0.09050
H211        H  0.24981298  0.17168851  0.50260303     0.10630
H212        H  0.28701188  0.26789486  0.56009790     0.08160
H213        H  0.17679210  0.26006134  0.52133739     0.08010
C214        C  0.20790889  0.36747129  0.50606428     0.05040
C215        C  0.24049433  0.37672275  0.48900394    -0.11110
C216        C  0.27052099  0.35451994  0.49393552     0.02540
C217        C  0.26818104  0.32513060  0.51774273    -0.09630
C218        C  0.23470159  0.31108807  0.52927722     0.05040
C219        C  0.20428624  0.33361644  0.52424667    -0.09050
H220        H  0.24233086  0.40066538  0.47195370     0.10630
H221        H  0.29289258  0.31056772  0.52255689     0.08160
H222        H  0.17814040  0.32501707  0.53413468     0.08010
C223        C  0.36685160  0.03154947  0.82981829     0.05040
C224        C  0.33017739  0.03206198  0.83974435    -0.11110
C225        C  0.30331149  0.02748979  0.81284287     0.02540
C226        C  0.31396273  0.01889040  0.77723017    -0.09630
C227        C  0.34940461  0.02660738  0.76616091     0.05040
C228        C  0.37641260  0.03110302  0.79287766    -0.09050
H229        H  0.32275161  0.03820779  0.86756102     0.10630
H230        H  0.29304172  0.01565905  0.75637354     0.08160
H231        H  0.40407982  0.03656360  0.78509614     0.08010
C232        C  0.20280196  0.03970134  0.82678878     0.05040
C233        C  0.23831363  0.02884008  0.83548956    -0.11110
C234        C  0.26687695  0.04403257  0.81622146     0.02540
C235        C  0.25901826  0.07203954  0.79205712    -0.09630
C236        C  0.22528596  0.07304417  0.77421027     0.05040
C237        C  0.19593321  0.05822040  0.79365960    -0.09050
H238        H  0.24357487  0.00980411  0.85721739     0.10630
H239        H  0.28138949  0.08792979  0.78314420     0.08160
H240        H  0.16846661  0.06175147  0.78392493     0.08010
C241        C  0.20987089  0.05869158  0.67236633     0.05040
C242        C  0.20016687  0.06420822  0.70914310    -0.11110
C243        C  0.22483692  0.08137857  0.73379984     0.02540
C244        C  0.25603951  0.09714135  0.71840956    -0.09630
C245        C  0.27115512  0.08086942  0.68703877     0.05040
C246        C  0.24645290  0.06366460  0.66240390    -0.09050
H247        H  0.17427299  0.05420046  0.71842383     0.10630
H248        H  0.27204071  0.11662388  0.73435237     0.08160
H249        H  0.25555083  0.05322593  0.63640246     0.08010
C250        C  0.36385373  0.03855974  0.66519856     0.05040
C251        C  0.37218013  0.02755514  0.70087882    -0.11110
C252        C  0.35269906  0.04274397  0.72947425     0.02540
C253        C  0.32879512  0.07089540  0.72156149    -0.09630
C254        C  0.31128971  0.07205286  0.68755762     0.05040
C255        C  0.33087111  0.05715549  0.65809290    -0.09050
H256        H  0.39386967  0.00855186  0.70626546     0.10630
H257        H  0.31981046  0.08677898  0.74410348     0.08160
H258        H  0.32142880  0.06081332  0.63042352     0.08010
C259        C  0.03815690  0.20170491  0.82545788     0.05040
C260        C  0.02577482  0.23735960  0.83305972    -0.11110
C261        C  0.04089075  0.26645838  0.81432378     0.02540
C262        C  0.07002645  0.25928968  0.79187140    -0.09630
C263        C  0.07320652  0.22486079  0.77467438     0.05040
C264        C  0.05852631  0.19479113  0.79361969    -0.09050
H265        H  0.00587549  0.24242005  0.85383850     0.10630
H266        H  0.08519714  0.28249381  0.78337174     0.08160
H267        H  0.06358798  0.16686163  0.78457424     0.08010
C268        C  0.02916692  0.36700289  0.82849937     0.05040
C269        C  0.03034213  0.37723257  0.79185710    -0.11110
C270        C  0.02631270  0.35017354  0.76469533     0.02540
C271        C  0.01762180  0.31415372  0.77482233    -0.09630
C272        C  0.02421577  0.30296127  0.81061376     0.05040
C273        C  0.02804977  0.32977415  0.83795885    -0.09050
H274        H  0.03688564  0.40530600  0.78472082     0.10630
H275        H  0.01534924  0.29309825  0.75358428     0.08160
H276        H  0.03298177  0.32177973  0.86582789     0.08010
C277        C  0.06127206  0.20985501  0.67321023     0.05040
C278        C  0.06625358  0.19961186  0.70979000    -0.11110
C279        C  0.08305669  0.22435283  0.73479192     0.02540
C280        C  0.09902466  0.25621341  0.72006396    -0.09630
C281        C  0.08403312  0.27157740  0.68831307     0.05040
C282        C  0.06731826  0.24673325  0.66338130    -0.09050
H283        H  0.05564396  0.17347684  0.71878385     0.10630
H284        H  0.11732289  0.27268606  0.73682939     0.08160
H285        H  0.05756328  0.25608439  0.63728376     0.08010
C286        C  0.04004061  0.36312475  0.66457730     0.05040
C287        C  0.02826043  0.37194319  0.69975452    -0.11110
C288        C  0.04371820  0.35380387  0.72895435     0.02540
C289        C  0.07256255  0.33042122  0.72217363    -0.09630
C290        C  0.07515649  0.31219000  0.68841349     0.05040
C291        C  0.06033972  0.33081356  0.65840140    -0.09050
H292        H  0.00825663  0.39299728  0.70432343     0.10630
H293        H  0.08803305  0.32215778  0.74514988     0.08160
H294        H  0.06496982  0.32096389  0.63094525     0.08010
O295        O  0.43579042  0.47712900  0.49751076    -0.84570
O296        O  0.14063441  0.47859151  0.50214135    -0.84740
O297        O  0.03738604  0.43389613  0.94085509    -0.86410
O298        O  0.03606086  0.43322381  0.55666692    -0.85170
O299        O  0.03671848  0.47716870  0.60233559    -0.84760
O300        O  0.03608968  0.47824393  0.89721623    -0.86130
O301        O  0.09594233  0.43410833  0.50142914    -0.84600
O302        O  0.47991271  0.43314009  0.49742152    -0.84190
Zr303      Zr  0.03797263  0.46470516  0.49973242     2.84310
O304        O  0.07504245  0.00189720  0.53740583    -1.06170
O305        O  0.00056325  0.00034870  0.96325268    -1.06900
C306        C  0.44676154  0.44348478  0.49673099     1.08530
C307        C  0.12924833  0.44483595  0.50219197     1.08480
C308        C  0.03644607  0.44474675  0.90775791     1.11460
C309        C  0.03562824  0.44353757  0.59019093     1.09240
H310        H  0.08953642  0.48548294  0.94855743     0.34800
O311        O  0.07484778  0.00103103  0.96372968    -1.27120
H312        H  0.48622621  0.48553827  0.55103828     0.34470
O313        O  0.00142873  0.00117720  0.53662479    -1.28800
O314        O  0.14094048  0.09991584  0.50123530    -0.84570
O315        O  0.43662539  0.09881167  0.50107603    -0.86070
O316        O  0.09464651  0.03640180  0.89688866    -0.84650
O317        O  0.09804559  0.03870937  0.60479114    -0.84700
O318        O  0.47785044  0.03665450  0.60273025    -0.84410
O319        O  0.47845480  0.03640859  0.89756489    -0.84210
O320        O  0.03648311  0.14067405  0.94062112    -0.84580
O321        O  0.03963696  0.14273582  0.56125754    -0.84050
O322        O  0.03616252  0.09479484  0.89687508    -0.85110
O323        O  0.03870054  0.09839063  0.60515007    -0.84270
O324        O  0.13986818  0.03690127  0.94043386    -0.84670
O325        O  0.43463347  0.03754557  0.94120177    -0.84390
O326        O  0.43424486  0.03628746  0.55751926    -0.84040
O327        O  0.14182591  0.03986640  0.56090512    -0.84450
O328        O  0.09678175  0.14393383  0.50115062    -0.84740
O329        O  0.48116324  0.14346392  0.50175053    -0.86080
Zr330      Zr  0.11182350  0.03889228  0.50095720     2.83100
Zr331      Zr  0.46498401  0.03802905  0.50010140     2.83500
Zr332      Zr  0.03736057  0.03737500  0.92795950     2.84090
Zr333      Zr  0.03821199  0.03821842  0.57460494     2.83360
Zr334      Zr  0.03865844  0.11240287  0.50116860     2.84220
O335        O  0.00206923  0.07546689  0.53774243    -1.06650
O336        O  0.07505840  0.07554390  0.96425269    -1.06150
C337        C  0.12995195  0.13358028  0.50147834     1.08510
C338        C  0.44792058  0.13264143  0.50141380     1.11120
C339        C  0.12805941  0.03598094  0.90706156     1.08680
C340        C  0.13133780  0.03972087  0.59432108     1.09040
C341        C  0.44458485  0.03572049  0.59101327     1.08620
C342        C  0.44534243  0.03682127  0.90803596     1.08170
C343        C  0.03553710  0.12861485  0.90724437     1.08600
C344        C  0.03967707  0.13209543  0.59463227     1.08110
H345        H  0.48615820  0.09009731  0.94892528     0.34790
O346        O  0.00129377  0.07505369  0.96406265    -1.27750
H347        H  0.09004004  0.09091981  0.55334070     0.34810
O348        O  0.07485104  0.07531298  0.53793645    -1.29130
C349        C  0.03445505  0.38930614  0.63650960    -0.11360
C350        C  0.03387127  0.41452509  0.61581378    -0.12920
C351        C  0.04261173  0.16018821  0.62265941    -0.11360
C352        C  0.04884607  0.18314334  0.64615976    -0.12920
C353        C  0.03325495  0.39431874  0.85640928    -0.11360
C354        C  0.03539993  0.41716723  0.88009869    -0.12920
C355        C  0.03356151  0.15447605  0.87846108    -0.11360
C356        C  0.03360962  0.17437816  0.85266296    -0.12920
C357        C  0.41600418  0.03387042  0.61706897    -0.11360
C358        C  0.39082481  0.03395124  0.63764182    -0.12900
C359        C  0.15927743  0.04216086  0.62233447    -0.11360
C360        C  0.18268838  0.04742900  0.64537961    -0.12920
C361        C  0.17494967  0.03470996  0.85336031    -0.11360
C362        C  0.15399109  0.03435939  0.87827066    -0.12920
C363        C  0.39456931  0.03494867  0.85729322    -0.11360
C364        C  0.41790471  0.03631871  0.88034453    -0.12920
C365        C  0.17847334  0.39290453  0.50427679    -0.11360
C366        C  0.15587113  0.41649120  0.50318385    -0.12920
C367        C  0.15687772  0.16229906  0.50356779    -0.11360
C368        C  0.17957070  0.18601693  0.50842472    -0.12920
C369        C  0.42131864  0.16100403  0.50069640    -0.11360
C370        C  0.39888970  0.18471767  0.49899285    -0.12920
C371        C  0.39714686  0.39108665  0.48964064    -0.11360
C372        C  0.41986068  0.41481856  0.49414381    -0.12920
C373        C  0.36774530  0.86608743  0.48098081     0.05040
C374        C  0.37363290  0.82848416  0.47288850    -0.11110
C375        C  0.34420669  0.80573793  0.46149211     0.02540
C376        C  0.31184958  0.82385750  0.95252767    -0.09630
C377        C  0.30359077  0.85640561  0.97161223     0.05040
C378        C  0.33231108  0.87903817  0.98331030    -0.09050
H379        H  0.40005556  0.81695793  0.47783046     0.10630
H380        H  0.28946278  0.80839485  0.94045691     0.08160
H381        H  0.32699553  0.90524098  0.99655464     0.08010
C382        C  0.36934865  0.70988880  0.99619769     0.05040
C383        C  0.37289221  0.74342940  0.97741732    -0.11110
C384        C  0.34227095  0.76549609  0.97140761     0.02540
C385        C  0.30873333  0.75113752  0.98249607    -0.09630
C386        C  0.30634849  0.72209093  0.00670935     0.05040
C387        C  0.33657244  0.70050705  0.01273297    -0.09050
H388        H  0.39912959  0.75213860  0.96786708     0.10630
H389        H  0.28388986  0.76527720  0.97711527     0.08160
H390        H  0.33470726  0.67687588  0.03019867     0.08010
C391        C  0.20895468  0.71084807  0.01799442     0.05040
C392        C  0.24441883  0.69778128  0.01613149    -0.11110
C393        C  0.27306200  0.72014167  0.02854796     0.02540
C394        C  0.26473098  0.75254522  0.04780825    -0.09630
C395        C  0.23247332  0.77081987  0.03871154     0.05040
C396        C  0.20311278  0.74835909  0.02656570    -0.09050
H397        H  0.24983964  0.67171743  0.00266238     0.10630
H398        H  0.28705228  0.76793795  0.06012520     0.08160
H399        H  0.17683168  0.76010709  0.02136587     0.08010
C400        C  0.20795810  0.86750368  0.00606088     0.05040
C401        C  0.24054330  0.87674682  0.98899522    -0.11110
C402        C  0.27056918  0.85454356  0.99393351     0.02540
C403        C  0.26822847  0.82516361  0.01775254    -0.09630
C404        C  0.23474810  0.81112773  0.02929282     0.05040
C405        C  0.20433489  0.83365672  0.02425615    -0.09050
H406        H  0.24237980  0.90068223  0.97193526     0.10630
H407        H  0.29293902  0.81060042  0.02257154     0.08160
H408        H  0.17818903  0.82506290  0.03414855     0.08010
C409        C  0.36683553  0.53152319  0.32981800     0.05040
C410        C  0.33016109  0.53203378  0.33974094    -0.11110
C411        C  0.30329790  0.52746657  0.31283690     0.02540
C412        C  0.31395206  0.51887416  0.27722301    -0.09630
C413        C  0.34939674  0.52658799  0.26615916     0.05040
C414        C  0.37640121  0.53107892  0.29287930    -0.09050
H415        H  0.32273298  0.53817743  0.36755743     0.10630
H416        H  0.29303297  0.51565079  0.25636348     0.08160
H417        H  0.40406956  0.53654010  0.28510183     0.08010
C418        C  0.20279083  0.53970239  0.32678357     0.05040
C419        C  0.23829912  0.52882811  0.33548186    -0.11110
C420        C  0.26686693  0.54401589  0.31621655     0.02540
C421        C  0.25901765  0.57203155  0.29205996    -0.09630
C422        C  0.22528723  0.57304919  0.27421210     0.05040
C423        C  0.19592888  0.55823011  0.29365744    -0.09050
H424        H  0.24355463  0.50978606  0.35720579     0.10630
H425        H  0.28139419  0.58791603  0.28315009     0.08160
H426        H  0.16846391  0.56177065  0.28392192     0.08010
C427        C  0.20988794  0.55870542  0.17236713     0.05040
C428        C  0.20017878  0.56422030  0.20914218    -0.11110
C429        C  0.22484577  0.58138806  0.23380294     0.02540
C430        C  0.25605280  0.59714919  0.21841851    -0.09630
C431        C  0.27116996  0.58088128  0.18704608     0.05040
C432        C  0.24646989  0.56367966  0.16240803    -0.09050
H433        H  0.17428332  0.55421252  0.21841879     0.10630
H434        H  0.27205482  0.61662707  0.23436624     0.08160
H435        H  0.25556961  0.55324336  0.13640633     0.08010
C436        C  0.36385959  0.53855809  0.16520154     0.05040
C437        C  0.37217956  0.52754355  0.20088010    -0.11110
C438        C  0.35269961  0.54273180  0.22947701     0.02540
C439        C  0.32880541  0.57089279  0.22156905    -0.09630
C440        C  0.31130328  0.57206146  0.18756462     0.05040
C441        C  0.33088298  0.55716510  0.15809799    -0.09050
H442        H  0.39386256  0.50853201  0.20626447     0.10630
H443        H  0.31982175  0.58677348  0.24411381     0.08160
H444        H  0.32144305  0.56083029  0.13042892     0.08010
C445        C  0.03823101  0.70170330  0.32545356     0.05040
C446        C  0.02585513  0.73735794  0.33306090    -0.11110
C447        C  0.04097124  0.76645639  0.31432637     0.02540
C448        C  0.07010329  0.75928860  0.29186858    -0.09630
C449        C  0.07327359  0.72486125  0.27466546     0.05040
C450        C  0.05859501  0.69479044  0.29361155    -0.09050
H451        H  0.00595624  0.74241824  0.35384023     0.10630
H452        H  0.08527142  0.78249383  0.28336477     0.08160
H453        H  0.06364895  0.66686114  0.28456059     0.08010
C454        C  0.02920088  0.86699569  0.32849243     0.05040
C455        C  0.03036274  0.87722461  0.29184967    -0.11110
C456        C  0.02634482  0.85016141  0.26469094     0.02540
C457        C  0.01767835  0.81413717  0.27482208    -0.09630
C458        C  0.02428625  0.80295236  0.31061281     0.05040
C459        C  0.02810993  0.82976804  0.33795507    -0.09050
H460        H  0.03688621  0.90530187  0.28471045     0.10630
H461        H  0.01541233  0.79307874  0.25358633     0.08160
H462        H  0.03305039  0.82177847  0.36582420     0.08010
C463        C  0.06128564  0.70986429  0.17320581     0.05040
C464        C  0.06628551  0.69961906  0.20978228    -0.11110
C465        C  0.08310136  0.72435847  0.23477703     0.02540
C466        C  0.09906054  0.75622084  0.22004266    -0.09630
C467        C  0.08405618  0.77158376  0.18829704     0.05040
C468        C  0.06732937  0.74674074  0.16337365    -0.09050
H469        H  0.05568101  0.67348325  0.21877960     0.10630
H470        H  0.11736518  0.77269481  0.23679971     0.08160
H471        H  0.05756322  0.75609164  0.13728009     0.08010
C472        C  0.04004218  0.86311885  0.16457136     0.05040
C473        C  0.02826965  0.87193476  0.19975158    -0.11110
C474        C  0.04374067  0.85379963  0.22894696     0.02540
C475        C  0.07258985  0.83042526  0.22215910    -0.09630
C476        C  0.07517807  0.81219494  0.18839856     0.05040
C477        C  0.06034857  0.83081410  0.15839030    -0.09050
H478        H  0.00826156  0.89298343  0.20432591     0.10630
H479        H  0.08806263  0.82215871  0.24513307     0.08160
H480        H  0.06497397  0.82096562  0.13093282     0.08010
O481        O  0.43582962  0.97713181  0.99750369    -0.84570
O482        O  0.14065769  0.97860584  0.00213550    -0.84740
O483        O  0.03735529  0.93388001  0.44084982    -0.86410
O484        O  0.03607575  0.93321631  0.05666466    -0.85170
O485        O  0.03671961  0.97716068  0.10233375    -0.84760
O486        O  0.03607522  0.97823134  0.39721367    -0.86130
O487        O  0.09597376  0.93411427  0.00142498    -0.84600
O488        O  0.47995727  0.93314825  0.99741771    -0.84190
Zr489      Zr  0.03799465  0.96469860  0.99973137     2.84310
O490        O  0.07507682  0.50192740  0.03740401    -1.06170
O491        O  0.00054622  0.50035885  0.46325325    -1.06900
C492        C  0.44680532  0.94348919  0.99672330     1.08530
C493        C  0.12927829  0.94484852  0.00218491     1.08480
C494        C  0.03642785  0.94473399  0.40775364     1.11460
C495        C  0.03563259  0.94352994  0.09018833     1.09240
H496        H  0.08950517  0.98545750  0.44855720     0.34800
O497        O  0.07483241  0.50103029  0.46372968    -1.27120
H498        H  0.48625881  0.98554735  0.05103783     0.34470
O499        O  0.00146071  0.50119444  0.03662686    -1.28800
O500        O  0.14096703  0.59995492  0.00124585    -0.84570
O501        O  0.43662965  0.59879382  0.00107702    -0.86070
O502        O  0.09463470  0.53640190  0.39688748    -0.84650
O503        O  0.09807346  0.53873312  0.10478609    -0.84700
O504        O  0.47785321  0.53663496  0.10272751    -0.84410
O505        O  0.47843067  0.53639610  0.39756686    -0.84210
O506        O  0.03649894  0.64067799  0.44061648    -0.84580
O507        O  0.03964851  0.64275712  0.06125382    -0.84050
O508        O  0.03617094  0.59479609  0.39687315    -0.85110
O509        O  0.03871697  0.59841113  0.10514591    -0.84270
O510        O  0.13985773  0.53689604  0.44043102    -0.84670
O511        O  0.43460791  0.53753325  0.44120258    -0.84390
O512        O  0.43424690  0.53626751  0.05751729    -0.84040
O513        O  0.14185415  0.53989557  0.06090040    -0.84450
O514        O  0.09680464  0.64396880  0.00116189    -0.84740
O515        O  0.48116905  0.64344451  0.00174956    -0.86080
Zr516      Zr  0.11185278  0.53892632  0.00095345     2.83100
Zr517      Zr  0.46498589  0.53800898  0.00009844     2.83500
Zr518      Zr  0.03734945  0.53737919  0.42796024     2.84090
Zr519      Zr  0.03824030  0.53824093  0.07460319     2.83360
Zr520      Zr  0.03868282  0.61242656  0.00116441     2.84220
O521        O  0.00209765  0.57548612  0.03773888    -1.06650
O522        O  0.07505078  0.57554301  0.46425343    -1.06150
C523        C  0.12997674  0.63361930  0.00149550     1.08510
C524        C  0.44792631  0.63262333  0.00141543     1.11120
C525        C  0.12804802  0.53597902  0.40705883     1.08680
C526        C  0.13136516  0.53974557  0.09431576     1.09040
C527        C  0.44458731  0.53570189  0.09101138     1.08620
C528        C  0.44531840  0.53680764  0.40803762     1.08170
C529        C  0.03555686  0.62861676  0.40724026     1.08600
C530        C  0.03968704  0.63211546  0.09462805     1.08110
H531        H  0.48613528  0.59008756  0.44892560     0.34790
O532        O  0.00128637  0.57506454  0.46406138    -1.27750
H533        H  0.09006348  0.59094865  0.05333966     0.34810
O534        O  0.07487653  0.57534056  0.03793455    -1.29130
C535        C  0.03444789  0.88929956  0.13650583    -0.11360
C536        C  0.03386643  0.91451804  0.11581010    -0.12920
C537        C  0.04261395  0.66020565  0.12265594    -0.11360
C538        C  0.04884929  0.68315593  0.14615923    -0.12920
C539        C  0.03327014  0.89431345  0.35640037    -0.11360
C540        C  0.03539728  0.91715868  0.38009259    -0.12920
C541        C  0.03360358  0.65447555  0.37845395    -0.11360
C542        C  0.03367102  0.67437392  0.35265337    -0.12920
C543        C  0.41600714  0.53385664  0.11706863    -0.11360
C544        C  0.39082935  0.53394357  0.13764380    -0.12900
C545        C  0.15930278  0.54218023  0.12232916    -0.11360
C546        C  0.18271012  0.54744468  0.14537731    -0.12920
C547        C  0.17493660  0.53471296  0.35335446    -0.11360
C548        C  0.15397880  0.53436022  0.37826600    -0.12920
C549        C  0.39454917  0.53492625  0.35729457    -0.11360
C550        C  0.41788249  0.53630101  0.38034654    -0.12920
C551        C  0.17852038  0.89293378  0.00426533    -0.11360
C552        C  0.15590892  0.91651122  0.00317234    -0.12920
C553        C  0.15690240  0.66234129  0.00360122    -0.11360
C554        C  0.17959738  0.68605752  0.00846820    -0.12920
C555        C  0.42132713  0.66098857  0.00070370    -0.11360
C556        C  0.39890580  0.68471014  0.99900752    -0.12920
C557        C  0.39719734  0.89108714  0.98962466    -0.11360
C558        C  0.41990904  0.91482008  0.99413057    -0.12920
C559        C  0.36779929  0.86609478  0.98096758     0.05040
C560        C  0.37368236  0.82848808  0.97288757    -0.11110
C561        C  0.34425301  0.80574226  0.96149938     0.02540
C562        C  0.31180164  0.82385205  0.45252505    -0.09630
C563        C  0.30353824  0.85639229  0.47162057     0.05040
C564        C  0.33225523  0.87902487  0.48332796    -0.09050
H565        H  0.40010315  0.81695932  0.97783422     0.10630
H566        H  0.28941721  0.80839128  0.44044745     0.08160
H567        H  0.32693594  0.90522258  0.49658062     0.08010
C568        C  0.36931831  0.70988367  0.49617177     0.05040
C569        C  0.37285628  0.74342840  0.47739825    -0.11110
C570        C  0.34223033  0.76548737  0.47138511     0.02540
C571        C  0.30869308  0.75111589  0.48246037    -0.09630
C572        C  0.30631034  0.72206247  0.50666620     0.05040
C573        C  0.33653959  0.70048709  0.51269430    -0.09050
H574        H  0.39909428  0.75214823  0.46785858     0.10630
H575        H  0.28384721  0.76525140  0.47707912     0.08160
H576        H  0.33467735  0.67685303  0.53015652     0.08010
C577        C  0.20891675  0.71080548  0.51794912     0.05040
C578        C  0.24438200  0.69774406  0.51607768    -0.11110
C579        C  0.27302243  0.72010326  0.52850159     0.02540
C580        C  0.26468756  0.75249880  0.54777347    -0.09630
C581        C  0.23242693  0.77077277  0.53868464     0.05040
C582        C  0.20306918  0.74831230  0.52653317    -0.09050
H583        H  0.24980511  0.67168494  0.50260043     0.10630
H584        H  0.28700700  0.76788933  0.56009662     0.08160
H585        H  0.17678551  0.76005783  0.52134090     0.08010
C586        C  0.20790486  0.86747029  0.50607093     0.05040
C587        C  0.24048993  0.87672162  0.48900996    -0.11110
C588        C  0.27051578  0.85451730  0.49393873     0.02540
C589        C  0.26817572  0.82512639  0.51774400    -0.09630
C590        C  0.23469633  0.81108425  0.52927915     0.05040
C591        C  0.20428153  0.83361412  0.52425114    -0.09050
H592        H  0.24232676  0.90066538  0.47196126     0.10630
H593        H  0.29288698  0.81056241  0.52255609     0.08160
H594        H  0.17813576  0.82501503  0.53413957     0.08010
C595        C  0.36683883  0.53152124  0.82980375     0.05040
C596        C  0.33016382  0.53202767  0.83972515    -0.11110
C597        C  0.30330228  0.52746292  0.81281907     0.02540
C598        C  0.31395780  0.51887456  0.77720556    -0.09630
C599        C  0.34940031  0.52659773  0.76614338     0.05040
C600        C  0.37640487  0.53108745  0.79286455    -0.09050
H601        H  0.32273391  0.53816496  0.86754241     0.10630
H602        H  0.29303934  0.51564867  0.75634562     0.08160
H603        H  0.40407274  0.53655284  0.78508830     0.08010
C604        C  0.20279663  0.53968756  0.82676823     0.05040
C605        C  0.23830568  0.52881606  0.83546376    -0.11110
C606        C  0.26686994  0.54400771  0.81619777     0.02540
C607        C  0.25901582  0.57202222  0.79204090    -0.09630
C608        C  0.22528332  0.57303778  0.77419651     0.05040
C609        C  0.19592888  0.55821536  0.79364393    -0.09050
H610        H  0.24356476  0.50977568  0.85718833     0.10630
H611        H  0.28138908  0.58791100  0.78313119     0.08160
H612        H  0.16846238  0.56175572  0.78391279     0.08010
C613        C  0.20987145  0.55869653  0.67235398     0.05040
C614        C  0.20016596  0.56421162  0.70913004    -0.11110
C615        C  0.22483493  0.58138006  0.73378848     0.02540
C616        C  0.25603880  0.59714362  0.71840133    -0.09630
C617        C  0.27115516  0.58087459  0.68702950     0.05040
C618        C  0.24645356  0.56367133  0.66239266    -0.09050
H619        H  0.17427214  0.55420230  0.71840951     0.10630
H620        H  0.27204037  0.61662278  0.73434793     0.08160
H621        H  0.25555228  0.55323407  0.63639098     0.08010
C622        C  0.36385147  0.53856398  0.66518630     0.05040
C623        C  0.37217718  0.52755515  0.70086476    -0.11110
C624        C  0.35269837  0.54274311  0.72946154     0.02540
C625        C  0.32879567  0.57089692  0.72155190    -0.09630
C626        C  0.31128978  0.57205808  0.68754817     0.05040
C627        C  0.33087046  0.55716274  0.65808213    -0.09050
H628        H  0.39386493  0.50854913  0.70624926     0.10630
H629        H  0.31981282  0.58677979  0.74409510     0.08160
H630        H  0.32142872  0.56082399  0.63041306     0.08010
C631        C  0.03823692  0.70170478  0.82543183     0.05040
C632        C  0.02585922  0.73735833  0.83303821    -0.11110
C633        C  0.04097263  0.76645645  0.81430225     0.02540
C634        C  0.07010231  0.75928974  0.79184091    -0.09630
C635        C  0.07327405  0.72486158  0.77463987     0.05040
C636        C  0.05859934  0.69479100  0.79358913    -0.09050
H637        H  0.00596270  0.74241862  0.85381992     0.10630
H638        H  0.08526963  0.78249487  0.78333585     0.08160
H639        H  0.06365555  0.66686146  0.78454042     0.08010
C640        C  0.02921043  0.86699360  0.82847826     0.05040
C641        C  0.03036607  0.87722470  0.79183569    -0.11110
C642        C  0.02634013  0.85016304  0.76467605     0.02540
C643        C  0.01767212  0.81413929  0.77480675    -0.09630
C644        C  0.02428756  0.80295225  0.81059496     0.05040
C645        C  0.02811852  0.82976552  0.83793836    -0.09050
H646        H  0.03689037  0.90530184  0.78469685     0.10630
H647        H  0.01539991  0.79308199  0.75357038     0.08160
H648        H  0.03306399  0.82177348  0.86580592     0.08010
C649        C  0.06127111  0.70985444  0.67318510     0.05040
C650        C  0.06628153  0.69961259  0.70976087    -0.11110
C651        C  0.08309739  0.72435657  0.73475051     0.02540
C652        C  0.09904854  0.75622015  0.72001074    -0.09630
C653        C  0.08403341  0.77157994  0.68826850     0.05040
C654        C  0.06730433  0.74673260  0.66334979    -0.09050
H655        H  0.05568415  0.67347530  0.71876213     0.10630
H656        H  0.11735507  0.77269681  0.73676303     0.08160
H657        H  0.05752958  0.75608095  0.63725846     0.08010
C658        C  0.04001629  0.86312039  0.66455456     0.05040
C659        C  0.02825241  0.87193661  0.69973744    -0.11110
C660        C  0.04372866  0.85380019  0.72892854     0.02540
C661        C  0.07257353  0.83042253  0.72213311    -0.09630
C662        C  0.07515179  0.81219105  0.68837190     0.05040
C663        C  0.06031652  0.83081202  0.65836730    -0.09050
H664        H  0.00824856  0.89298835  0.70431718     0.10630
H665        H  0.08805232  0.82215699  0.74510309     0.08160
H666        H  0.06493506  0.82096381  0.63090845     0.08010
O667        O  0.43578729  0.97712162  0.49751147    -0.84570
O668        O  0.14063793  0.97859596  0.50214734    -0.84740
O669        O  0.03737528  0.93386612  0.94084418    -0.86410
O670        O  0.03605196  0.93323501  0.55666603    -0.85170
O671        O  0.03670883  0.97717877  0.60233578    -0.84760
O672        O  0.03608543  0.97822004  0.89721057    -0.86130
O673        O  0.09594353  0.93411533  0.50143588    -0.84600
O674        O  0.47990933  0.93313217  0.49742292    -0.84190
Zr675      Zr  0.03797634  0.96471579  0.49973430     2.84310
O676        O  0.07503825  0.50188891  0.53740216    -1.06170
O677        O  0.00058243  0.50038368  0.96325685    -1.06900
C678        C  0.44675827  0.94347739  0.49673182     1.08530
C679        C  0.12925001  0.94484099  0.50219920     1.08480
C680        C  0.03644402  0.94472214  0.90774852     1.11460
C681        C  0.03561423  0.94354818  0.59018958     1.09240
H682        H  0.08951621  0.98545407  0.94855394     0.34800
O683        O  0.07487039  0.50106361  0.96373192    -1.27120
H684        H  0.48622417  0.98553150  0.55104003     0.34470
O685        O  0.00142432  0.50116535  0.53662473    -1.28800
O686        O  0.14093341  0.59991041  0.50123418    -0.84570
O687        O  0.43662788  0.59881777  0.50107494    -0.86070
O688        O  0.09466146  0.53641787  0.89688740    -0.84650
O689        O  0.09804380  0.53870498  0.60478662    -0.84700
O690        O  0.47785202  0.53666084  0.60272733    -0.84410
O691        O  0.47842815  0.53637253  0.89756314    -0.84210
O692        O  0.03652654  0.64070333  0.94060867    -0.84580
O693        O  0.03962327  0.64272472  0.56125347    -0.84050
O694        O  0.03619881  0.59481636  0.89686991    -0.85110
O695        O  0.03869032  0.59838034  0.60514688    -0.84270
O696        O  0.13988752  0.53692639  0.94042859    -0.84670
O697        O  0.43460541  0.53750775  0.94119900    -0.84390
O698        O  0.43424762  0.53629508  0.55751524    -0.84040
O699        O  0.14182223  0.53986116  0.56089868    -0.84450
O700        O  0.09677340  0.64392680  0.50115203    -0.84740
O701        O  0.48116458  0.64347122  0.50175067    -0.86080
Zr702      Zr  0.11181711  0.53888605  0.50095344     2.83100
Zr703      Zr  0.46498788  0.53803651  0.50010000     2.83500
Zr704      Zr  0.03737998  0.53740377  0.92796112     2.84090
Zr705      Zr  0.03820816  0.53820775  0.57460357     2.83360
Zr706      Zr  0.03865120  0.61239237  0.50116701     2.84220
O707        O  0.00206405  0.57545540  0.53774189    -1.06650
O708        O  0.07508160  0.57557581  0.96424994    -1.06150
C709        C  0.12994410  0.63357463  0.50147937     1.08510
C710        C  0.44792208  0.63264774  0.50141341     1.11120
C711        C  0.12807471  0.53599798  0.90705753     1.08680
C712        C  0.13133553  0.53971706  0.59431487     1.09040
C713        C  0.44458688  0.53572749  0.59100906     1.08620
C714        C  0.44531579  0.53678438  0.90803354     1.08170
C715        C  0.03558301  0.62863766  0.90723367     1.08600
C716        C  0.03966308  0.63208471  0.59462780     1.08110
H717        H  0.48613387  0.59006033  0.94892362     0.34790
O718        O  0.00131887  0.57509217  0.96406158    -1.27750
H719        H  0.09003365  0.59091207  0.55333897     0.34810
O720        O  0.07484518  0.57530448  0.53793493    -1.29130
C721        C  0.03442493  0.88930832  0.63649540    -0.11360
C722        C  0.03384572  0.91453426  0.61580856    -0.12920
C723        C  0.04259493  0.66017875  0.62265206    -0.11360
C724        C  0.04883336  0.68313890  0.64614549    -0.12920
C725        C  0.03328554  0.89430837  0.85638852    -0.11360
C726        C  0.03541472  0.91714921  0.88008487    -0.12920
C727        C  0.03362428  0.65449076  0.87844362    -0.11360
C728        C  0.03368527  0.67438047  0.85263688    -0.12920
C729        C  0.41600522  0.53387716  0.61706233    -0.11360
C730        C  0.39082321  0.53395736  0.63763116    -0.12900
C731        C  0.15927676  0.54216003  0.62232591    -0.11360
C732        C  0.18268974  0.54743120  0.64536802    -0.12920
C733        C  0.17494999  0.53470635  0.85334580    -0.11360
C734        C  0.15400054  0.53436584  0.87826330    -0.12920
C735        C  0.39455097  0.53491549  0.85728382    -0.11360
C736        C  0.41788060  0.53628292  0.88034053    -0.12920
C737        C  0.17847068  0.89290533  0.50428571    -0.11360
C738        C  0.15587080  0.91649433  0.50319276    -0.12920
C739        C  0.15686944  0.66229445  0.50357052    -0.11360
C740        C  0.17956260  0.68601257  0.50842736    -0.12920
C741        C  0.42131858  0.66100885  0.50069626    -0.11360
C742        C  0.39888651  0.68471942  0.49899255    -0.12920
C743        C  0.39714200  0.89108141  0.48964027    -0.11360
C744        C  0.41985700  0.91481189  0.49414398    -0.12920
C745        C  0.86774569  0.36609346  0.48098589     0.05040
C746        C  0.87363394  0.32849094  0.47289014    -0.11110
C747        C  0.84420774  0.30574484  0.46149287     0.02540
C748        C  0.81184478  0.32387760  0.95256116    -0.09630
C749        C  0.80358568  0.35641702  0.97165925     0.05040
C750        C  0.83230562  0.37904785  0.98336284    -0.09050
H751        H  0.90005719  0.31696517  0.47782979     0.10630
H752        H  0.78945819  0.30841890  0.94048499     0.08160
H753        H  0.82698978  0.40524595  0.99661627     0.08010
C754        C  0.86934615  0.20989536  0.99619059     0.05040
C755        C  0.87289010  0.24344353  0.97742324    -0.11110
C756        C  0.84226829  0.26551093  0.97141928     0.02540
C757        C  0.80873025  0.25114619  0.98250041    -0.09630
C758        C  0.80634460  0.22208785  0.00670005     0.05040
C759        C  0.83656889  0.20050385  0.01271764    -0.09050
H760        H  0.89912819  0.25215813  0.96787940     0.10630
H761        H  0.78388654  0.26528751  0.97712554     0.08160
H762        H  0.83470353  0.17686563  0.03017418     0.08010
C763        C  0.70895141  0.21083102  0.01798870     0.05040
C764        C  0.74441658  0.19776861  0.01611608    -0.11110
C765        C  0.77305859  0.22012779  0.02853780     0.02540
C766        C  0.76472643  0.25252322  0.04781043    -0.09630
C767        C  0.73246782  0.27079875  0.03872071     0.05040
C768        C  0.70310752  0.24833908  0.02657157    -0.09050
H769        H  0.74983839  0.17170952  0.00263830     0.10630
H770        H  0.78704711  0.26791235  0.06013280     0.08160
H771        H  0.67682451  0.26008580  0.02137919     0.08010
C772        C  0.70794364  0.36748330  0.00608510     0.05040
C773        C  0.74053207  0.37673979  0.98903316    -0.11110
C774        C  0.77056262  0.35454491  0.99397735     0.02540
C775        C  0.76822137  0.32515663  0.01778702    -0.09630
C776        C  0.73473981  0.31110993  0.02931421     0.05040
C777        C  0.70432317  0.33363286  0.02427356    -0.09050
H778        H  0.74236708  0.40067832  0.97197721     0.10630
H779        H  0.79293354  0.31059602  0.02260581     0.08160
H780        H  0.67817589  0.32503085  0.03415578     0.08010
C781        C  0.86683912  0.03153093  0.32981776     0.05040
C782        C  0.83016475  0.03203877  0.33974095    -0.11110
C783        C  0.80330174  0.02746674  0.31283753     0.02540
C784        C  0.81395639  0.01887241  0.27722419    -0.09630
C785        C  0.84940031  0.02658874  0.26615927     0.05040
C786        C  0.87640462  0.03108460  0.29287895    -0.09050
H787        H  0.82273632  0.03818368  0.36755710     0.10630
H788        H  0.79303733  0.01564504  0.25636513     0.08160
H789        H  0.90407245  0.03654761  0.28510090     0.08010
C790        C  0.70279368  0.03969402  0.32678658     0.05040
C791        C  0.73830344  0.02882424  0.33548481    -0.11110
C792        C  0.76686903  0.04401237  0.31621647     0.02540
C793        C  0.75901608  0.07202459  0.29205726    -0.09630
C794        C  0.72528515  0.07303646  0.27421001     0.05040
C795        C  0.69592879  0.05821675  0.29365806    -0.09050
H796        H  0.74356169  0.00978540  0.35721086     0.10630
H797        H  0.78139064  0.08791067  0.28314533     0.08160
H798        H  0.66846316  0.06175314  0.28392277     0.08010
C799        C  0.70988520  0.05868087  0.17236624     0.05040
C800        C  0.70017639  0.06419796  0.20914110    -0.11110
C801        C  0.72484222  0.08137050  0.23379971     0.02540
C802        C  0.75604735  0.09713319  0.21841294    -0.09630
C803        C  0.77116569  0.08086367  0.18704183     0.05040
C804        C  0.74646671  0.06365711  0.16240593    -0.09050
H805        H  0.67428183  0.05418916  0.21841911     0.10630
H806        H  0.77204741  0.11661480  0.23435817     0.08160
H807        H  0.75556683  0.05321962  0.13640482     0.08010
C808        C  0.86386295  0.03855362  0.16520035     0.05040
C809        C  0.87218413  0.02754272  0.20087992    -0.11110
C810        C  0.85270114  0.04272958  0.22947546     0.02540
C811        C  0.82880298  0.07088625  0.22156494    -0.09630
C812        C  0.81130037  0.07204919  0.18756050     0.05040
C813        C  0.83088270  0.05715391  0.15809501    -0.09050
H814        H  0.89387049  0.00853560  0.20626605     0.10630
H815        H  0.81981726  0.08676750  0.24410837     0.08160
H816        H  0.82144229  0.06081558  0.13042557     0.08010
C817        C  0.53823682  0.20169107  0.32545550     0.05040
C818        C  0.52586587  0.23734676  0.33306530    -0.11110
C819        C  0.54098288  0.26644396  0.31433006     0.02540
C820        C  0.57011097  0.25927383  0.29186756    -0.09630
C821        C  0.57327581  0.22484598  0.27466366     0.05040
C822        C  0.55859684  0.19477646  0.29361140    -0.09050
H823        H  0.50596945  0.24240868  0.35384669     0.10630
H824        H  0.58527939  0.28247810  0.28336118     0.08160
H825        H  0.56364683  0.16684665  0.28455955     0.08010
C826        C  0.52921389  0.36698424  0.32849306     0.05040
C827        C  0.53036816  0.37721109  0.29184938    -0.11110
C828        C  0.52634567  0.35014610  0.26469292     0.02540
C829        C  0.51768251  0.31412232  0.27482783    -0.09630
C830        C  0.52429833  0.30293998  0.31061775     0.05040
C831        C  0.52812682  0.32975716  0.33795794    -0.09050
H832        H  0.53688847  0.40528825  0.28470725     0.10630
H833        H  0.51541245  0.29306255  0.25359369     0.08160
H834        H  0.53307249  0.32176931  0.36582670     0.08010
C835        C  0.56127408  0.20984366  0.17320599     0.05040
C836        C  0.56627924  0.19960036  0.20978229    -0.11110
C837        C  0.58309738  0.22434174  0.23477361     0.02540
C838        C  0.59905339  0.25620367  0.22003524    -0.09630
C839        C  0.58404352  0.27156465  0.18829126     0.05040
C840        C  0.56731428  0.24671989  0.16337134    -0.09050
H841        H  0.55567760  0.17346430  0.21878205     0.10630
H842        H  0.61736072  0.27267860  0.23678828     0.08160
H843        H  0.55754426  0.25606903  0.13727856     0.08010
C844        C  0.54002195  0.36309725  0.16456960     0.05040
C845        C  0.52825665  0.37191521  0.19975185    -0.11110
C846        C  0.54373405  0.35378225  0.22894515     0.02540
C847        C  0.57258179  0.33040735  0.22215286    -0.09630
C848        C  0.57516374  0.31217539  0.18839256     0.05040
C849        C  0.56032779  0.33079255  0.15838616    -0.09050
H850        H  0.50824946  0.39296411  0.20432917     0.10630
H851        H  0.58805793  0.32214109  0.24512475     0.08160
H852        H  0.56494816  0.32094283  0.13092816     0.08010
O853        O  0.93582987  0.47715046  0.99751536    -0.84570
O854        O  0.64064016  0.47857125  0.00213834    -0.84740
O855        O  0.53735958  0.43387039  0.44084835    -0.86410
O856        O  0.53605179  0.43319393  0.05666340    -0.85170
O857        O  0.53670317  0.47713855  0.10233222    -0.84760
O858        O  0.53607830  0.47822223  0.39721276    -0.86130
O859        O  0.59595172  0.43408426  0.00142670    -0.84600
O860        O  0.97995681  0.43316630  0.99743005    -0.84190
Zr861      Zr  0.53797775  0.46467645  0.99973070     2.84310
O862        O  0.57507423  0.00190835  0.03740317    -1.06170
O863        O  0.50054762  0.00034966  0.46325430    -1.06900
C864        C  0.94680467  0.44350742  0.99673820     1.08530
C865        C  0.62925702  0.44481540  0.00218865     1.08480
C866        C  0.53643345  0.44472477  0.40775228     1.11460
C867        C  0.53561059  0.44350778  0.09018701     1.09240
H868        H  0.58950428  0.48544959  0.44855795     0.34800
O869        O  0.57483408  0.00102108  0.46373392    -1.27120
H870        H  0.98626277  0.48556781  0.05104278     0.34470
O871        O  0.50145714  0.00117491  0.03662325    -1.28800
O872        O  0.64096339  0.09993788  0.00124728    -0.84570
O873        O  0.93663166  0.09880391  0.00107519    -0.86070
O874        O  0.59463894  0.03639297  0.39689160    -0.84650
O875        O  0.59806890  0.03870978  0.10478623    -0.84700
O876        O  0.97786042  0.03664839  0.10272927    -0.84410
O877        O  0.97843300  0.03640816  0.39756706    -0.84210
O878        O  0.53650064  0.14066807  0.44061809    -0.84580
O879        O  0.53964106  0.14273645  0.06125644    -0.84050
O880        O  0.53617449  0.09478553  0.39687531    -0.85110
O881        O  0.53871022  0.09838858  0.10514680    -0.84270
O882        O  0.63986060  0.03688752  0.44043651    -0.84670
O883        O  0.93461047  0.03754532  0.44120304    -0.84390
O884        O  0.93425426  0.03627701  0.05751890    -0.84040
O885        O  0.64185058  0.03987550  0.06090173    -0.84450
O886        O  0.59680040  0.14395129  0.00116343    -0.84740
O887        O  0.98116658  0.14345942  0.00175280    -0.86080
Zr888      Zr  0.61185015  0.03890935  0.00095490     2.83100
Zr889      Zr  0.96499365  0.03802169  0.00010049     2.83500
Zr890      Zr  0.53735259  0.03736921  0.42796253     2.84090
Zr891      Zr  0.53823605  0.03821986  0.07460189     2.83360
Zr892      Zr  0.53867799  0.11240937  0.00116563     2.84220
O893        O  0.50209373  0.07546614  0.03773798    -1.06650
O894        O  0.57505193  0.07553410  0.46425683    -1.06150
C895        C  0.62997268  0.13360204  0.00149635     1.08510
C896        C  0.94792525  0.13263451  0.00141456     1.11120
C897        C  0.62805200  0.03597043  0.40706388     1.08680
C898        C  0.63136091  0.03972285  0.09431671     1.09040
C899        C  0.94459453  0.03571158  0.09101302     1.08620
C900        C  0.94532084  0.03682004  0.40803799     1.08170
C901        C  0.53555969  0.12860619  0.40724209     1.08600
C902        C  0.53967898  0.13209331  0.09463014     1.08110
H903        H  0.98613879  0.09009837  0.44892543     0.34790
O904        O  0.50128834  0.07505576  0.46406167    -1.27750
H905        H  0.59005841  0.09092999  0.05334160     0.34810
O906        O  0.57487201  0.07532231  0.03793553    -1.29130
C907        C  0.53442330  0.38927732  0.13650433    -0.11360
C908        C  0.53384136  0.41449601  0.11580882    -0.12920
C909        C  0.54260353  0.16018247  0.12265887    -0.11360
C910        C  0.54883760  0.18313328  0.14616177    -0.12920
C911        C  0.53328345  0.39430389  0.35639911    -0.11360
C912        C  0.53540776  0.41714978  0.38009088    -0.12920
C913        C  0.53360689  0.15446417  0.37845553    -0.11360
C914        C  0.53367525  0.17436177  0.35265463    -0.12920
C915        C  0.91601403  0.03386155  0.11706991    -0.11360
C916        C  0.89083507  0.03394387  0.13764388    -0.12900
C917        C  0.65929840  0.04215514  0.12233037    -0.11360
C918        C  0.68270679  0.04741873  0.14537760    -0.12920
C919        C  0.67494083  0.03470477  0.35335928    -0.11360
C920        C  0.65398359  0.03435199  0.37827147    -0.12920
C921        C  0.89455244  0.03493753  0.35729425    -0.11360
C922        C  0.91788509  0.03631365  0.38034682    -0.12920
C923        C  0.67849913  0.39290327  0.00428073    -0.11360
C924        C  0.65588482  0.41647679  0.00318109    -0.12920
C925        C  0.65689844  0.16232396  0.00359965    -0.11360
C926        C  0.67959423  0.18603982  0.00846404    -0.12920
C927        C  0.92132475  0.16099731  0.00069822    -0.11360
C928        C  0.89890437  0.18471899  0.99899902    -0.12920
C929        C  0.89719391  0.39110440  0.98965654    -0.11360
C930        C  0.91990695  0.41483807  0.99415398    -0.12920
C931        C  0.86779501  0.36610947  0.98100697     0.05040
C932        C  0.87367923  0.32850510  0.97291481    -0.11110
C933        C  0.84424926  0.30576082  0.96152417     0.02540
C934        C  0.81180246  0.32385907  0.45252784    -0.09630
C935        C  0.80353866  0.35639665  0.47162729     0.05040
C936        C  0.83225520  0.37902919  0.48333620    -0.09050
H937        H  0.90010193  0.31697681  0.97785172     0.10630
H938        H  0.78941825  0.30839921  0.44044871     0.08160
H939        H  0.82693544  0.40522542  0.49659153     0.08010
C940        C  0.86932147  0.20989029  0.49616774     0.05040
C941        C  0.87285870  0.24343607  0.47739639    -0.11110
C942        C  0.84223193  0.26549336  0.47138245     0.02540
C943        C  0.80869441  0.25111873  0.48245414    -0.09630
C944        C  0.80631163  0.22206246  0.50665691     0.05040
C945        C  0.83654209  0.20048951  0.51268631    -0.09050
H946        H  0.89909701  0.25215827  0.46785954     0.10630
H947        H  0.78384811  0.26525362  0.47707322     0.08160
H948        H  0.83468040  0.17685436  0.53014720     0.08010
C949        C  0.70891766  0.21080026  0.51794467     0.05040
C950        C  0.74438345  0.19774087  0.51606796    -0.11110
C951        C  0.77302387  0.22010012  0.52849212     0.02540
C952        C  0.76468918  0.25249297  0.54776812    -0.09630
C953        C  0.73242802  0.27076702  0.53868231     0.05040
C954        C  0.70306973  0.24830654  0.52653167    -0.09050
H955        H  0.74980653  0.17168310  0.50258815     0.10630
H956        H  0.78700873  0.26788254  0.56009222     0.08160
H957        H  0.67678520  0.26005156  0.52134292     0.08010
C958        C  0.70790452  0.36746623  0.50607537     0.05040
C959        C  0.74048986  0.37672106  0.48901713    -0.11110
C960        C  0.77051637  0.35451793  0.49394515     0.02540
C961        C  0.76817637  0.32512381  0.51774676    -0.09630
C962        C  0.73469687  0.31107930  0.52927967     0.05040
C963        C  0.70428158  0.33360846  0.52425256    -0.09050
H964        H  0.74232630  0.40066649  0.47197063     0.10630
H965        H  0.79288797  0.31056003  0.52255750     0.08160
H966        H  0.67813565  0.32500756  0.53413912     0.08010
C967        C  0.86684506  0.03153313  0.82980600     0.05040
C968        C  0.83017034  0.03204101  0.83972872    -0.11110
C969        C  0.80330775  0.02747536  0.81282376     0.02540
C970        C  0.81396194  0.01888521  0.77721030    -0.09630
C971        C  0.84940398  0.02660792  0.76614627     0.05040
C972        C  0.87640968  0.03109818  0.79286630    -0.09050
H973        H  0.82274152  0.03817898  0.86754614     0.10630
H974        H  0.79304268  0.01565768  0.75635139     0.08160
H975        H  0.90407736  0.03656260  0.78508879     0.08010
C976        C  0.70280117  0.03968839  0.82677376     0.05040
C977        C  0.73831189  0.02882295  0.83547026    -0.11110
C978        C  0.76687420  0.04401753  0.81620352     0.02540
C979        C  0.75901617  0.07202948  0.79204480    -0.09630
C980        C  0.72528341  0.07303873  0.77420000     0.05040
C981        C  0.69593097  0.05821331  0.79364834    -0.09050
H982        H  0.74357353  0.00978404  0.85719549     0.10630
H983        H  0.78138741  0.08792063  0.78313378     0.08160
H984        H  0.66846395  0.06174857  0.78391661     0.08010
C985        C  0.70986989  0.05868943  0.67235806     0.05040
C986        C  0.70016516  0.06420576  0.70913422    -0.11110
C987        C  0.72483362  0.08137748  0.73379107     0.02540
C988        C  0.75603572  0.09714256  0.71840194    -0.09630
C989        C  0.77115253  0.08087281  0.68703066     0.05040
C990        C  0.74645151  0.06366611  0.66239549    -0.09050
H991        H  0.67427216  0.05419543  0.71841488     0.10630
H992        H  0.77203599  0.11662444  0.73434656     0.08160
H993        H  0.75555029  0.05322818  0.63639408     0.08010
C994        C  0.86385390  0.03857182  0.66518801     0.05040
C995        C  0.87218098  0.02756515  0.70086700    -0.11110
C996        C  0.85270022  0.04275158  0.72946329     0.02540
C997        C  0.82879450  0.07090236  0.72155251    -0.09630
C998        C  0.81128808  0.07206011  0.68754892     0.05040
C999        C  0.83087030  0.05716599  0.65808327    -0.09050
H1000       H  0.89387111  0.00856210  0.70625219     0.10630
H1001       H  0.81980959  0.08678445  0.74409536     0.08160
H1002       H  0.82142783  0.06082503  0.63041412     0.08010
C1003       C  0.53823843  0.20168489  0.82543009     0.05040
C1004       C  0.52585289  0.23733606  0.83303335    -0.11110
C1005       C  0.54096358  0.26643628  0.81429857     0.02540
C1006       C  0.57009832  0.25927446  0.79184239    -0.09630
C1007       C  0.57327807  0.22484686  0.77464234     0.05040
C1008       C  0.55860625  0.19477398  0.79359035    -0.09050
H1009       H  0.50595257  0.24239319  0.85381208     0.10630
H1010       H  0.58526318  0.28248188  0.78333920     0.08160
H1011       H  0.56366851  0.16684525  0.78454295     0.08010
C1012       C  0.52917930  0.36697020  0.82847517     0.05040
C1013       C  0.53034206  0.37720299  0.79183320    -0.11110
C1014       C  0.52632759  0.35014168  0.76467160     0.02540
C1015       C  0.51766354  0.31411598  0.77479900    -0.09630
C1016       C  0.52427266  0.30292885  0.81058826     0.05040
C1017       C  0.52809171  0.32974157  0.83793350    -0.09050
H1018       H  0.53686384  0.40528145  0.78469701     0.10630
H1019       H  0.51539984  0.29305909  0.75356152     0.08160
H1020       H  0.53303266  0.32174920  0.86580173     0.08010
C1021       C  0.56128033  0.20984274  0.67318755     0.05040
C1022       C  0.56629072  0.19959987  0.70976292    -0.11110
C1023       C  0.58310451  0.22434382  0.73475389     0.02540
C1024       C  0.59905414  0.25620933  0.72001615    -0.09630
C1025       C  0.58404057  0.27156866  0.68827283     0.05040
C1026       C  0.56731344  0.24672108  0.66335307    -0.09050
H1027       H  0.55569359  0.17346210  0.71876324     0.10630
H1028       H  0.61735743  0.27268748  0.73677072     0.08160
H1029       H  0.55753898  0.25606969  0.63726172     0.08010
C1030       C  0.54002120  0.36310625  0.66455348     0.05040
C1031       C  0.52825023  0.37191978  0.69973459    -0.11110
C1032       C  0.54372305  0.35378360  0.72892781     0.02540
C1033       C  0.57257191  0.33040973  0.72213649    -0.09630
C1034       C  0.57515712  0.31217934  0.68837544     0.05040
C1035       C  0.56032535  0.33079996  0.65836885    -0.09050
H1036       H  0.50824309  0.39296887  0.70431144     0.10630
H1037       H  0.58804795  0.32214499  0.74510856     0.08160
H1038       H  0.56494906  0.32095276  0.63091063     0.08010
O1039       O  0.93578701  0.47712918  0.49751351    -0.84570
O1040       O  0.64063596  0.47858888  0.50214924    -0.84740
O1041       O  0.53734927  0.43384144  0.94084442    -0.86410
O1042       O  0.53605259  0.43322205  0.55666377    -0.85170
O1043       O  0.53670880  0.47716465  0.60233445    -0.84760
O1044       O  0.53606304  0.47819446  0.89721001    -0.86130
O1045       O  0.59594258  0.43410708  0.50143646    -0.84600
O1046       O  0.97990960  0.43314031  0.49742430    -0.84190
Zr1047     Zr  0.53797504  0.46470542  0.49973316     2.84310
O1048       O  0.57503782  0.00187978  0.53740581    -1.06170
O1049       O  0.50058158  0.00036685  0.96325383    -1.06900
C1050       C  0.94675832  0.44348503  0.49673410     1.08530
C1051       C  0.62924862  0.44483376  0.50220094     1.08480
C1052       C  0.53641610  0.44469669  0.90774851     1.11460
C1053       C  0.53561559  0.44353425  0.59018764     1.09240
H1054       H  0.58950206  0.48542254  0.94855327     0.34800
O1055       O  0.57487016  0.00104732  0.96373116    -1.27120
H1056       H  0.98622613  0.48553895  0.55104071     0.34470
O1057       O  0.50142355  0.00115760  0.53662503    -1.28800
O1058       O  0.64093376  0.09990260  0.50123877    -0.84570
O1059       O  0.93663234  0.09882943  0.50107535    -0.86070
O1060       O  0.59466331  0.03640613  0.89688895    -0.84650
O1061       O  0.59804154  0.03869401  0.60479057    -0.84700
O1062       O  0.97785524  0.03667570  0.60272824    -0.84410
O1063       O  0.97843602  0.03638720  0.89756447    -0.84210
O1064       O  0.53652463  0.14068663  0.94060975    -0.84580
O1065       O  0.53962432  0.14271578  0.56125582    -0.84050
O1066       O  0.53620108  0.09480028  0.89687042    -0.85110
O1067       O  0.53868980  0.09837120  0.60514907    -0.84270
O1068       O  0.63988785  0.03691219  0.94043155    -0.84670
O1069       O  0.93461334  0.03751684  0.94120050    -0.84390
O1070       O  0.93425058  0.03630732  0.55751635    -0.84040
O1071       O  0.64182111  0.03985288  0.56090391    -0.84450
O1072       O  0.59677361  0.14391881  0.50115454    -0.84740
O1073       O  0.98116978  0.14348220  0.50175054    -0.86080
Zr1074     Zr  0.61181743  0.03887786  0.50095803     2.83100
Zr1075     Zr  0.96499056  0.03804794  0.50010062     2.83500
Zr1076     Zr  0.53738034  0.03738821  0.92796077     2.84090
Zr1077     Zr  0.53820653  0.03819880  0.57460564     2.83360
Zr1078     Zr  0.53865127  0.11238393  0.50116911     2.84220
O1079       O  0.50206320  0.07544702  0.53774314    -1.06650
O1080       O  0.57507912  0.07555976  0.96425228    -1.06150
C1081       C  0.62994445  0.13356688  0.50148275     1.08510
C1082       C  0.94792725  0.13265905  0.50141355     1.11120
C1083       C  0.62807631  0.03598613  0.90706007     1.08680
C1084       C  0.63133361  0.03970730  0.59431978     1.09040
C1085       C  0.94458999  0.03574099  0.59101023     1.08620
C1086       C  0.94532361  0.03679524  0.90803492     1.08170
C1087       C  0.53558399  0.12862125  0.90723456     1.08600
C1088       C  0.53966413  0.13207556  0.59463009     1.08110
H1089       H  0.98613412  0.09007507  0.94892862     0.34790
O1090       O  0.50131657  0.07507543  0.96406022    -1.27750
H1091       H  0.59003248  0.09090343  0.55334254     0.34810
O1092       O  0.57484425  0.07529598  0.53793813    -1.29130
C1093       C  0.53443067  0.38929384  0.63649356    -0.11360
C1094       C  0.53384991  0.41451958  0.61580633    -0.12920
C1095       C  0.54259879  0.16016916  0.62265442    -0.11360
C1096       C  0.54884028  0.18312843  0.64614786    -0.12920
C1097       C  0.53324819  0.39428384  0.85638749    -0.11360
C1098       C  0.53537888  0.41712342  0.88008506    -0.12920
C1099       C  0.53362710  0.15447385  0.87844426    -0.11360
C1100       C  0.53368872  0.17436145  0.85263606    -0.12920
C1101       C  0.91600841  0.03388979  0.61706385    -0.11360
C1102       C  0.89082640  0.03396794  0.63763288    -0.12900
C1103       C  0.65927439  0.04215026  0.62233145    -0.11360
C1104       C  0.68268773  0.04742219  0.64537315    -0.12920
C1105       C  0.67495426  0.03470204  0.85335032    -0.11360
C1106       C  0.65400350  0.03435749  0.87826673    -0.12920
C1107       C  0.89455833  0.03492594  0.85728527    -0.11360
C1108       C  0.91788828  0.03629249  0.88034181    -0.12920
C1109       C  0.67846954  0.39289954  0.50428986    -0.11360
C1110       C  0.65586956  0.41648798  0.50319588    -0.12920
C1111       C  0.65686991  0.16228712  0.50357253    -0.11360
C1112       C  0.67956314  0.18600595  0.50842661    -0.12920
C1113       C  0.92132434  0.16102000  0.50069591    -0.11360
C1114       C  0.89889143  0.18472921  0.49899080    -0.12920
C1115       C  0.89714224  0.39108814  0.48964471    -0.11360
C1116       C  0.91985717  0.41481903  0.49414754    -0.12920
C1117       C  0.86775168  0.86609881  0.48099199     0.05040
C1118       C  0.87364083  0.82849561  0.47289847    -0.11110
C1119       C  0.84421523  0.80574856  0.46150078     0.02540
C1120       C  0.81181809  0.82385151  0.95253809    -0.09630
C1121       C  0.80355884  0.85638809  0.97164106     0.05040
C1122       C  0.83227807  0.87901654  0.98335111    -0.09050
H1123       H  0.90006412  0.81697032  0.47783913     0.10630
H1124       H  0.78943183  0.80839565  0.94045800     0.08160
H1125       H  0.82696178  0.90521235  0.99660880     0.08010
C1126       C  0.86932798  0.70988307  0.99618429     0.05040
C1127       C  0.87286658  0.74342619  0.97741043    -0.11110
C1128       C  0.84224064  0.76548150  0.97138949     0.02540
C1129       C  0.80870088  0.75110594  0.98245486    -0.09630
C1130       C  0.80631446  0.72205032  0.00665865     0.05040
C1131       C  0.83654579  0.70048048  0.01269664    -0.09050
H1132       H  0.89910642  0.75214842  0.96787765     0.10630
H1133       H  0.78385513  0.76523992  0.97706857     0.08160
H1134       H  0.83468271  0.67684677  0.03015923     0.08010
C1135       C  0.70891709  0.71079069  0.01793379     0.05040
C1136       C  0.74438295  0.69773042  0.01606018    -0.11110
C1137       C  0.77302284  0.72008811  0.02848861     0.02540
C1138       C  0.76468656  0.75247986  0.04776535    -0.09630
C1139       C  0.73242826  0.77075690  0.03867470     0.05040
C1140       C  0.70307008  0.74829835  0.02651884    -0.09050
H1141       H  0.74980667  0.67167224  0.00258147     0.10630
H1142       H  0.78700485  0.76786692  0.06009499     0.08160
H1143       H  0.67678696  0.76004538  0.02132724     0.08010
C1144       C  0.70792750  0.86747338  0.00608807     0.05040
C1145       C  0.74051630  0.87672480  0.98903520    -0.11110
C1146       C  0.77053576  0.85451162  0.99395735     0.02540
C1147       C  0.76818670  0.82511090  0.01774982    -0.09630
C1148       C  0.73470331  0.81107072  0.02927675     0.05040
C1149       C  0.70429349  0.83360904  0.02425322    -0.09050
H1150       H  0.74236067  0.90067550  0.97199660     0.10630
H1151       H  0.79289474  0.81054056  0.02255833     0.08160
H1152       H  0.67814456  0.82501119  0.03413453     0.08010
C1153       C  0.86683598  0.53153988  0.32980867     0.05040
C1154       C  0.83016084  0.53204538  0.33972993    -0.11110
C1155       C  0.80329937  0.52747402  0.31282483     0.02540
C1156       C  0.81395635  0.51888172  0.27721199    -0.09630
C1157       C  0.84939959  0.52660357  0.26614835     0.05040
C1158       C  0.87640300  0.53109909  0.29286969    -0.09050
H1159       H  0.82273060  0.53818638  0.36754634     0.10630
H1160       H  0.79303823  0.51565127  0.25635236     0.08160
H1161       H  0.90407087  0.53656430  0.28509330     0.08010
C1162       C  0.70278958  0.53968679  0.32677832     0.05040
C1163       C  0.73830170  0.52882375  0.33547577    -0.11110
C1164       C  0.76686354  0.54401341  0.31620311     0.02540
C1165       C  0.75900387  0.57202125  0.29204095    -0.09630
C1166       C  0.72527216  0.57302381  0.27419444     0.05040
C1167       C  0.69591940  0.55820220  0.29364655    -0.09050
H1168       H  0.74356451  0.50978966  0.35720484     0.10630
H1169       H  0.78137406  0.58791270  0.28312793     0.08160
H1170       H  0.66845256  0.56173255  0.28391230     0.08010
C1171       C  0.70987103  0.55865046  0.17235229     0.05040
C1172       C  0.70016284  0.56417104  0.20912699    -0.11110
C1173       C  0.72482626  0.58135163  0.23378254     0.02540
C1174       C  0.75602763  0.59711841  0.21839246    -0.09630
C1175       C  0.77114931  0.58084714  0.18702370     0.05040
C1176       C  0.74645259  0.56363133  0.16239059    -0.09050
H1177       H  0.67427028  0.55415922  0.21840743     0.10630
H1178       H  0.77202340  0.61660634  0.23433445     0.08160
H1179       H  0.75555451  0.55319173  0.13639095     0.08010
C1180       C  0.86387097  0.53857743  0.16519008     0.05040
C1181       C  0.87219256  0.52756893  0.20087070    -0.11110
C1182       C  0.85269845  0.54274513  0.22946383     0.02540
C1183       C  0.82878948  0.57089112  0.22154954    -0.09630
C1184       C  0.81128780  0.57204514  0.18754409     0.05040
C1185       C  0.83088044  0.55715949  0.15808054    -0.09050
H1186       H  0.89388776  0.50857293  0.20625953     0.10630
H1187       H  0.81979733  0.58677003  0.24409123     0.08160
H1188       H  0.82144083  0.56081675  0.13041018     0.08010
C1189       C  0.53823688  0.70169273  0.32544539     0.05040
C1190       C  0.52586948  0.73735020  0.33305377    -0.11110
C1191       C  0.54098422  0.76644432  0.31431206     0.02540
C1192       C  0.57010774  0.75926928  0.29184515    -0.09630
C1193       C  0.57326615  0.72484009  0.27464270     0.05040
C1194       C  0.55858896  0.69477334  0.29359652    -0.09050
H1195       H  0.50597811  0.74241591  0.35383922     0.10630
H1196       H  0.58527954  0.78247036  0.28333725     0.08160
H1197       H  0.56363493  0.66684230  0.28454600     0.08010
C1198       C  0.52922071  0.86698631  0.32847946     0.05040
C1199       C  0.53037371  0.87721454  0.29183544    -0.11110
C1200       C  0.52634864  0.85015017  0.26467780     0.02540
C1201       C  0.51768417  0.81412653  0.27481301    -0.09630
C1202       C  0.52430329  0.80294263  0.31060173     0.05040
C1203       C  0.52813418  0.82975867  0.33794259    -0.09050
H1204       H  0.53689393  0.90529187  0.28469401     0.10630
H1205       H  0.51540996  0.79306723  0.25357878     0.08160
H1206       H  0.53308071  0.82176945  0.36581079     0.08010
C1207       C  0.56124891  0.70982874  0.17318671     0.05040
C1208       C  0.56626011  0.69958882  0.20976340    -0.11110
C1209       C  0.58308064  0.72433261  0.23475033     0.02540
C1210       C  0.59903383  0.75619304  0.22000632    -0.09630
C1211       C  0.58401671  0.77155356  0.18826522     0.05040
C1212       C  0.56728233  0.74670680  0.16334946    -0.09050
H1213       H  0.55566285  0.67345228  0.21876673     0.10630
H1214       H  0.61734664  0.77266708  0.23675405     0.08160
H1215       H  0.55750691  0.75605504  0.13725830     0.08010
C1216       C  0.54002792  0.86311296  0.16455338     0.05040
C1217       C  0.52826589  0.87193039  0.19973753    -0.11110
C1218       C  0.54373448  0.85378441  0.22892745     0.02540
C1219       C  0.57257220  0.83039899  0.22212930    -0.09630
C1220       C  0.57514330  0.81216706  0.18836794     0.05040
C1221       C  0.56031392  0.83079465  0.15836416    -0.09050
H1222       H  0.50827055  0.89299010  0.20431904     0.10630
H1223       H  0.58804839  0.82212772  0.24509856     0.08160
H1224       H  0.56492832  0.82094515  0.13090496     0.08010
O1225       O  0.93580703  0.97710923  0.99751354    -0.84570
O1226       O  0.64067458  0.97861740  0.00215251    -0.84740
O1227       O  0.53735808  0.93386263  0.44084697    -0.86410
O1228       O  0.53609156  0.93323738  0.05666577    -0.85170
O1229       O  0.53673803  0.97718063  0.10233533    -0.84760
O1230       O  0.53607742  0.97821545  0.39721222    -0.86130
O1231       O  0.59598475  0.93413199  0.00144261    -0.84600
O1232       O  0.97993518  0.93312589  0.99742332    -0.84190
Zr1233     Zr  0.53801342  0.96472087  0.99973408     2.84310
O1234       O  0.57504178  0.50186022  0.03740170    -1.06170
O1235       O  0.50055020  0.50035768  0.46325188    -1.06900
C1236       C  0.94678250  0.94346654  0.99673460     1.08530
C1237       C  0.62928977  0.94486123  0.00220818     1.08480
C1238       C  0.53643305  0.94471774  0.40775061     1.11460
C1239       C  0.53564911  0.94354969  0.09018961     1.09240
H1240       H  0.58950138  0.98544203  0.44855911     0.34800
O1241       O  0.57483736  0.50102928  0.46373248    -1.27120
H1242       H  0.98624209  0.98552605  0.05103642     0.34470
O1243       O  0.50142673  0.50113682  0.03662028    -1.28800
O1244       O  0.64093714  0.59988507  0.00123373    -0.84570
O1245       O  0.93665798  0.59884029  0.00108612    -0.86070
O1246       O  0.59464162  0.53639799  0.39689061    -0.84650
O1247       O  0.59804377  0.53866418  0.10478574    -0.84700
O1248       O  0.97788415  0.53669672  0.10273108    -0.84410
O1249       O  0.97842460  0.53640128  0.39756650    -0.84210
O1250       O  0.53650471  0.64067626  0.44061706    -0.84580
O1251       O  0.53962189  0.64269384  0.06125407    -0.84050
O1252       O  0.53617902  0.59479381  0.39687402    -0.85110
O1253       O  0.53868779  0.59834909  0.10514710    -0.84270
O1254       O  0.63986333  0.53689119  0.44043562    -0.84670
O1255       O  0.93460255  0.53753682  0.44120306    -0.84390
O1256       O  0.93427860  0.53632287  0.05752048    -0.84040
O1257       O  0.64182269  0.53982525  0.06089849    -0.84450
O1258       O  0.59677631  0.64390019  0.00115254    -0.84740
O1259       O  0.98119023  0.64349866  0.00175401    -0.86080
Zr1260     Zr  0.61181891  0.53886031  0.00095323     2.83100
Zr1261     Zr  0.96501895  0.53806214  0.00010312     2.83500
Zr1262     Zr  0.53735556  0.53737753  0.42796142     2.84090
Zr1263     Zr  0.53820883  0.53817759  0.07460166     2.83360
Zr1264     Zr  0.53865484  0.61236351  0.00116597     2.84220
O1265       O  0.50206661  0.57542586  0.03773902    -1.06650
O1266       O  0.57505437  0.57554127  0.46425788    -1.06150
C1267       C  0.62994747  0.63354941  0.00147895     1.08510
C1268       C  0.94794907  0.63267081  0.00142414     1.11120
C1269       C  0.62805460  0.53597356  0.40706287     1.08680
C1270       C  0.63133563  0.53967555  0.09431435     1.09040
C1271       C  0.94461809  0.53575990  0.09101473     1.08620
C1272       C  0.94531249  0.53681349  0.40803748     1.08170
C1273       C  0.53556446  0.62861454  0.40724070     1.08600
C1274       C  0.53965918  0.63205369  0.09462847     1.08110
H1275       H  0.98612958  0.59008812  0.44892658     0.34790
O1276       O  0.50129181  0.57506431  0.46406102    -1.27750
H1277       H  0.59003564  0.59088365  0.05334105     0.34810
O1278       O  0.57484741  0.57527668  0.03793612    -1.29130
C1279       C  0.53444983  0.88930734  0.13649575    -0.11360
C1280       C  0.53387853  0.91453474  0.11580920    -0.12920
C1281       C  0.54258468  0.66014817  0.12265341    -0.11360
C1282       C  0.54881634  0.68311016  0.14614713    -0.12920
C1283       C  0.53328850  0.89430389  0.35638876    -0.11360
C1284       C  0.53541001  0.91714450  0.38008634    -0.12920
C1285       C  0.53361233  0.65447228  0.37845308    -0.11360
C1286       C  0.53367936  0.67436695  0.35264947    -0.12920
C1287       C  0.91603572  0.53390932  0.11707034    -0.11360
C1288       C  0.89085160  0.53398375  0.13763861    -0.12900
C1289       C  0.65927695  0.54211172  0.12232539    -0.11360
C1290       C  0.68269067  0.54738094  0.14536694    -0.12920
C1291       C  0.67494020  0.53470048  0.35335533    -0.11360
C1292       C  0.65398554  0.53435134  0.37826991    -0.12920
C1293       C  0.89454756  0.53494061  0.35728844    -0.11360
C1294       C  0.91787711  0.53631133  0.38034495    -0.12920
C1295       C  0.67850150  0.89291790  0.00430662    -0.11360
C1296       C  0.65591047  0.91651524  0.00320966    -0.12920
C1297       C  0.65687210  0.66227154  0.00356698    -0.11360
C1298       C  0.67956285  0.68599401  0.00841814    -0.12920
C1299       C  0.92134147  0.66102626  0.00071519    -0.11360
C1300       C  0.89890105  0.68472765  0.99901351    -0.12920
C1301       C  0.89716716  0.89106832  0.98965239    -0.11360
C1302       C  0.91988390  0.91479793  0.99415151    -0.12920
C1303       C  0.86776697  0.86607726  0.98099674     0.05040
C1304       C  0.87365045  0.82847480  0.97289786    -0.11110
C1305       C  0.84422087  0.80573282  0.96150126     0.02540
C1306       C  0.81181018  0.82386227  0.45253371    -0.09630
C1307       C  0.80354490  0.85639972  0.47163248     0.05040
C1308       C  0.83226060  0.87903335  0.48334152    -0.09050
H1309       H  0.90007298  0.81694626  0.97783443     0.10630
H1310       H  0.78942682  0.80840209  0.44045333     0.08160
H1311       H  0.82693979  0.90522999  0.49659555     0.08010
C1312       C  0.86932435  0.70988999  0.49617214     0.05040
C1313       C  0.87286427  0.74343758  0.47740378    -0.11110
C1314       C  0.84223864  0.76549686  0.47139036     0.02540
C1315       C  0.80870027  0.75112293  0.48246049    -0.09630
C1316       C  0.80631553  0.72206531  0.50666137     0.05040
C1317       C  0.83654429  0.70049005  0.51268952    -0.09050
H1318       H  0.89910324  0.75215909  0.46786808     0.10630
H1319       H  0.78385456  0.76525875  0.47707955     0.08160
H1320       H  0.83468065  0.67685340  0.53014828     0.08010
C1321       C  0.70892156  0.71080394  0.51794510     0.05040
C1322       C  0.74438713  0.69774400  0.51606972    -0.11110
C1323       C  0.77302723  0.72010275  0.52849540     0.02540
C1324       C  0.76469230  0.75249535  0.54777167    -0.09630
C1325       C  0.73243174  0.77076977  0.53868492     0.05040
C1326       C  0.70307368  0.74830988  0.52653284    -0.09050
H1327       H  0.74981042  0.67168644  0.50258959     0.10630
H1328       H  0.78701163  0.76788462  0.56009654     0.08160
H1329       H  0.67678941  0.76005514  0.52134329     0.08010
C1330       C  0.70790827  0.86746670  0.50607483     0.05040
C1331       C  0.74049428  0.87672235  0.48901820    -0.11110
C1332       C  0.77052152  0.85452066  0.49394890     0.02540
C1333       C  0.76818104  0.82512707  0.51775126    -0.09630
C1334       C  0.73470111  0.81108188  0.52928247     0.05040
C1335       C  0.70428556  0.83360981  0.52425308    -0.09050
H1336       H  0.74233067  0.90066719  0.47197092     0.10630
H1337       H  0.79289276  0.81056408  0.52256396     0.08160
H1338       H  0.67813932  0.82500847  0.53413852     0.08010
C1339       C  0.86684990  0.53154656  0.82982348     0.05040
C1340       C  0.83017514  0.53204737  0.83974845    -0.11110
C1341       C  0.80331094  0.52746931  0.81284598     0.02540
C1342       C  0.81396563  0.51887617  0.77723278    -0.09630
C1343       C  0.84940615  0.52660328  0.76616521     0.05040
C1344       C  0.87641208  0.53110482  0.79288322    -0.09050
H1345       H  0.82274696  0.53818942  0.86756520     0.10630
H1346       H  0.79304600  0.51564151  0.75637518     0.08160
H1347       H  0.90407811  0.53657393  0.78510299     0.08010
C1348       C  0.70279735  0.53966043  0.82678979     0.05040
C1349       C  0.73831077  0.52880379  0.83549010    -0.11110
C1350       C  0.76687238  0.54400351  0.81622448     0.02540
C1351       C  0.75900978  0.57201220  0.79206349    -0.09630
C1352       C  0.72527768  0.57301395  0.77421616     0.05040
C1353       C  0.69592669  0.55818269  0.79366273    -0.09050
H1354       H  0.74357454  0.50976644  0.85721613     0.10630
H1355       H  0.78137874  0.58790743  0.78315328     0.08160
H1356       H  0.66845972  0.56171106  0.78392801     0.08010
C1357       C  0.70986649  0.55867662  0.67236985     0.05040
C1358       C  0.70016103  0.56418538  0.70914724    -0.11110
C1359       C  0.72482829  0.58135500  0.73380717     0.02540
C1360       C  0.75602900  0.59712499  0.71842001    -0.09630
C1361       C  0.77114789  0.58086025  0.68704723     0.05040
C1362       C  0.74644835  0.56365603  0.66240909    -0.09050
H1363       H  0.67426818  0.55417256  0.71842576     0.10630
H1364       H  0.77202663  0.61660794  0.73436596     0.08160
H1365       H  0.75554821  0.55322316  0.63640618     0.08010
C1366       C  0.86385556  0.53856972  0.66520395     0.05040
C1367       C  0.87218290  0.52756266  0.70088336    -0.11110
C1368       C  0.85269797  0.54274411  0.72948000     0.02540
C1369       C  0.82878898  0.57089172  0.72156985    -0.09630
C1370       C  0.81128423  0.57205022  0.68756570     0.05040
C1371       C  0.83086937  0.55716015  0.65809970    -0.09050
H1372       H  0.89387552  0.50856256  0.70626850     0.10630
H1373       H  0.81980114  0.58677092  0.74411347     0.08160
H1374       H  0.82142668  0.56081894  0.63043060     0.08010
C1375       C  0.53824356  0.70168627  0.82545944     0.05040
C1376       C  0.52587212  0.73734180  0.83307240    -0.11110
C1377       C  0.54098481  0.76644102  0.81433557     0.02540
C1378       C  0.57010997  0.75927199  0.79186863    -0.09630
C1379       C  0.57327375  0.72484486  0.77466264     0.05040
C1380       C  0.55859877  0.69477406  0.79361152    -0.09050
H1381       H  0.50597821  0.74240185  0.85385662     0.10630
H1382       H  0.58527879  0.78247619  0.78336338     0.08160
H1383       H  0.56364827  0.66684484  0.78455750     0.08010
C1384       C  0.52921120  0.86698407  0.82849991     0.05040
C1385       C  0.53035783  0.87721005  0.79185527    -0.11110
C1386       C  0.52633420  0.85014432  0.76469926     0.02540
C1387       C  0.51767605  0.81411964  0.77483659    -0.09630
C1388       C  0.52429842  0.80293779  0.81062581     0.05040
C1389       C  0.52812912  0.82975636  0.83796523    -0.09050
H1390       H  0.53687519  0.90528746  0.78471163     0.10630
H1391       H  0.51540450  0.79305942  0.75360304     0.08160
H1392       H  0.53308067  0.82176939  0.86583322     0.08010
C1393       C  0.56126845  0.70984080  0.67320369     0.05040
C1394       C  0.56627599  0.69959857  0.70978034    -0.11110
C1395       C  0.58309221  0.72434187  0.73477129     0.02540
C1396       C  0.59904475  0.75620490  0.72003192    -0.09630
C1397       C  0.58403135  0.77156537  0.68828921     0.05040
C1398       C  0.56730302  0.74671896  0.66336951    -0.09050
H1399       H  0.55567781  0.67346130  0.71878067     0.10630
H1400       H  0.61735239  0.77268078  0.73678371     0.08160
H1401       H  0.55753012  0.75606817  0.63727779     0.08010
C1402       C  0.54001895  0.86310912  0.66457447     0.05040
C1403       C  0.52825011  0.87192234  0.69975739    -0.11110
C1404       C  0.54372070  0.85378059  0.72894938     0.02540
C1405       C  0.57256657  0.83040445  0.72215528    -0.09630
C1406       C  0.57514955  0.81217632  0.68839332     0.05040
C1407       C  0.56031857  0.83079988  0.65838815    -0.09050
H1408       H  0.50824669  0.89297459  0.70433628     0.10630
H1409       H  0.58804179  0.82213615  0.74512646     0.08160
H1410       H  0.56493988  0.82095274  0.63092945     0.08010
O1411       O  0.93579161  0.97714043  0.49751283    -0.84570
O1412       O  0.64063364  0.97858344  0.50214796    -0.84740
O1413       O  0.53739484  0.93388137  0.94085068    -0.86410
O1414       O  0.53605066  0.93321523  0.55667062    -0.85170
O1415       O  0.53670753  0.97716028  0.60233910    -0.84760
O1416       O  0.53609790  0.97823056  0.89721325    -0.86130
O1417       O  0.59594158  0.93410011  0.50143708    -0.84600
O1418       O  0.97991331  0.93315097  0.49742464    -0.84190
Zr1419     Zr  0.53797246  0.96469612  0.49973527     2.84310
O1420       O  0.57504062  0.50188668  0.53740513    -1.06170
O1421       O  0.50055094  0.50033057  0.96325191    -1.06900
C1422       C  0.94676215  0.94349586  0.49673412     1.08530
C1423       C  0.62924733  0.94482809  0.50220002     1.08480
C1424       C  0.53645798  0.94473328  0.90775388     1.11460
C1425       C  0.53561416  0.94352906  0.59019467     1.09240
H1426       H  0.58953754  0.98546767  0.94855701     0.34800
O1427       O  0.57483608  0.50100254  0.96372845    -1.27120
H1428       H  0.98622873  0.98555153  0.55103958     0.34470
O1429       O  0.50142585  0.50116469  0.53662388    -1.28800
O1430       O  0.64093675  0.59990889  0.50123760    -0.84570
O1431       O  0.93662585  0.59881973  0.50107768    -0.86070
O1432       O  0.59463972  0.53636158  0.89688730    -0.84650
O1433       O  0.59804242  0.53869783  0.60479155    -0.84700
O1434       O  0.97785269  0.53666413  0.60273095    -0.84410
O1435       O  0.97845299  0.53642380  0.89756779    -0.84210
O1436       O  0.53650622  0.64064848  0.94061489    -0.84580
O1437       O  0.53962601  0.64272173  0.56125994    -0.84050
O1438       O  0.53617916  0.59476769  0.89687028    -0.85110
O1439       O  0.53869097  0.59837519  0.60515129    -0.84270
O1440       O  0.63986110  0.53686140  0.94043278    -0.84670
O1441       O  0.93463357  0.53756011  0.94120659    -0.84390
O1442       O  0.93424559  0.53629793  0.55752152    -0.84040
O1443       O  0.64182306  0.53985754  0.56090599    -0.84450
O1444       O  0.59677696  0.64392573  0.50115444    -0.84740
O1445       O  0.98116378  0.64347196  0.50175000    -0.86080
Zr1446     Zr  0.61182079  0.53888446  0.50095815     2.83100
Zr1447     Zr  0.96498339  0.53803697  0.50010226     2.83500
Zr1448     Zr  0.53735301  0.53734999  0.92795763     2.84090
Zr1449     Zr  0.53820884  0.53820506  0.57460470     2.83360
Zr1450     Zr  0.53865401  0.61239246  0.50116978     2.84220
O1451       O  0.50206618  0.57545423  0.53774262    -1.06650
O1452       O  0.57505366  0.57551507  0.96425116    -1.06150
C1453       C  0.62994762  0.63357318  0.50148169     1.08510
C1454       C  0.94792132  0.63264933  0.50141461     1.11120
C1455       C  0.62805262  0.53593837  0.90706041     1.08680
C1456       C  0.63133476  0.53971049  0.59432182     1.09040
C1457       C  0.94458648  0.53573148  0.59101537     1.08620
C1458       C  0.94534103  0.53683519  0.90804029     1.08170
C1459       C  0.53556587  0.62858836  0.90723823     1.08600
C1460       C  0.53966486  0.63208005  0.59463416     1.08110
H1461       H  0.98616014  0.59011371  0.94892667     0.34790
O1462       O  0.50129013  0.57503634  0.96405857    -1.27750
H1463       H  0.59003510  0.59090987  0.55334292     0.34810
O1464       O  0.57484695  0.57530288  0.53793795    -1.29130
C1465       C  0.53442865  0.88929611  0.63651224    -0.11360
C1466       C  0.53384862  0.91451666  0.61581775    -0.12920
C1467       C  0.54259641  0.66017158  0.62266169    -0.11360
C1468       C  0.54883321  0.68312689  0.64616062    -0.12920
C1469       C  0.53328815  0.89430583  0.85640485    -0.11360
C1470       C  0.53542230  0.91715522  0.88009374    -0.12920
C1471       C  0.53361543  0.65444934  0.87845305    -0.11360
C1472       C  0.53368391  0.67435275  0.85265598    -0.12920
C1473       C  0.91600617  0.53388379  0.61707249    -0.11360
C1474       C  0.89082706  0.53396497  0.63764621    -0.12900
C1475       C  0.65927438  0.54214952  0.62233538    -0.11360
C1476       C  0.68268531  0.54741608  0.64538090    -0.12920
C1477       C  0.67494494  0.53466368  0.85336059    -0.11360
C1478       C  0.65398495  0.53431251  0.87826993    -0.12920
C1479       C  0.89456628  0.53495332  0.85729918    -0.11360
C1480       C  0.91790201  0.53632885  0.88035004    -0.12920
C1481       C  0.67847194  0.89289794  0.50428723    -0.11360
C1482       C  0.65586964  0.91648391  0.50319354    -0.12920
C1483       C  0.65687334  0.66229273  0.50357073    -0.11360
C1484       C  0.67956711  0.68601068  0.50842528    -0.12920
C1485       C  0.92131994  0.66101170  0.50069728    -0.11360
C1486       C  0.89889118  0.68472499  0.49899285    -0.12920
C1487       C  0.89714735  0.89109615  0.48964815    -0.11360
C1488       C  0.91986079  0.91482929  0.49414876    -0.12920
loop_ 
_geom_bond_atom_site_label_1 
_geom_bond_atom_site_label_2 
_geom_bond_distance 
_geom_bond_site_symmetry_2 
_ccdc_geom_bond_type 
C1            C2   1.415       .  A
C1          C192   1.403       .  A
C1          C371   1.438       .  S
C2            C3   1.414       .  A
C2            H7   1.082       .  S
C3          C190   1.412       .  A
C3          C198   1.516       .  S
C4            C5   1.405       .  A
C4          C189   1.412       .  A
C4            H8   1.082       .  S
C5            C6   1.395       .  A
C5           C30   1.483       .  S
C6          C187   1.403       .  A
C6            H9   1.084       .  S
C10          C11   1.418       .  A
C10          C15   1.405   1_556  A
C10         C184   1.438       .  S
C11          C12   1.413       .  A
C11          H16   1.083       .  S
C12          C13   1.409       .  A
C12         C189   1.516       .  S
C13          C14   1.396   1_556  A
C13          H17   1.076       .  S
C14          C15   1.391       .  A
C14          C21   1.482       .  S
C15          H18   1.084       .  S
C19          C20   1.403       .  A
C19          C24   1.415       .  A
C19         C182   1.439       .  S
C20          C21   1.395       .  A
C20          H25   1.084       .  S
C21          C22   1.404       .  A
C22          C23   1.412       .  A
C22          H26   1.082       .  S
C23          C24   1.414       .  A
C23          C32   1.514       .  S
C24          H27   1.083       .  S
C28          C29   1.407   1_554  A
C28          C33   1.417       .  A
C28         C179   1.439       .  S
C29          C30   1.393       .  A
C29          H34   1.084       .  S
C30          C31   1.396   1_556  A
C31          C32   1.408       .  A
C31          H35   1.076       .  S
C32          C33   1.412       .  A
C33          H36   1.083       .  S
C37          C38   1.410       .  A
C37          C42   1.409       .  A
C37         C177   1.433       .  S
C38          C39   1.399       .  A
C38          H43   1.084       .  S
C39          C40   1.405       .  A
C39          C48   1.488       .  S
C40          C41   1.405       .  A
C40          H44   1.086       .  S
C41          C42   1.398       .  A
C41          C66   1.487       .  S
C42          H45   1.084       .  S
C46          C47   1.411       .  A
C46          C51   1.424       .  A
C46         C175   1.442       .  S
C47          C48   1.395       .  A
C47          H52   1.083       .  S
C48          C49   1.394       .  A
C49          C50   1.403       .  A
C49          H53   1.063       .  S
C50          C51   1.415       .  A
C50          C57   1.522       .  S
C51          H54   1.083       .  S
C55          C56   1.416       .  A
C55          C60   1.418       .  A
C55         C174   1.454       .  S
C56          C57   1.411       .  A
C56          H61   1.083       .  S
C57          C58   1.413       .  A
C58          C59   1.413       .  A
C58          H62   1.078       .  S
C59          C60   1.412       .  A
C59          C68   1.523       .  S
C60          H63   1.083       .  S
C64          C65   1.410       .  A
C64          C69   1.425       .  A
C64         C172   1.442       .  S
C65          C66   1.394       .  A
C65          H70   1.084       .  S
C66          C67   1.393       .  A
C67          C68   1.402       .  A
C67          H71   1.062       .  S
C68          C69   1.416       .  A
C69          H72   1.083       .  S
C73          C74   1.405       .  A
C73          C78   1.422       .  A
C73         C170   1.433       .  S
C74          C75   1.389       .  A
C74          H79   1.084       .  S
C75          C76   1.392       .  A
C75          C86   1.478       .  S
C76          C77   1.400       .  A
C76          H80   1.062       .  S
C77          C78   1.414       .  A
C77          C93   1.517       .  S
C78          H81   1.083       .  S
C82          C83   1.406       .  A
C82          C87   1.404       .  A
C82         C167   1.422       .  S
C83          C84   1.396       .  A
C83          H88   1.084       .  S
C84          C85   1.403       .  A
C84         C102   1.480       .  S
C85          C86   1.404       .  A
C85          H89   1.086       .  S
C86          C87   1.394       .  A
C87          H90   1.084       .  S
C91          C92   1.413       .  A
C91          C96   1.411       .  A
C91         C166   1.446       .  S
C92          C93   1.409       .  A
C92          H97   1.083       .  S
C93          C94   1.414       .  A
C94          C95   1.413       .  A
C94          H98   1.079       .  S
C95          C96   1.408       .  A
C95         C104   1.517       .  S
C96          H99   1.083       .  S
C100        C101   1.405       .  A
C100        C105   1.419       .  A
C100        C163   1.431       .  S
C101        C102   1.390       .  A
C101        H106   1.084       .  S
C102        C103   1.395       .  A
C103        C104   1.403       .  A
C103        H107   1.064       .  S
C104        C105   1.413       .  A
C105        H108   1.083       .  S
O109        C120   1.294       .  A
O109       Zr517   2.453   1_556  S
O110        C121   1.293       .  A
O110       Zr516   2.450       .  S
O111        C122   1.287       .  A
O111       Zr303   2.422       .  S
O112        C123   1.284       .  A
O112       Zr117   2.406   1_554  S
O113        C123   1.295       .  A
O113       Zr519   2.459       .  S
O114        C122   1.285       .  A
O114       Zr518   2.413       .  S
O115        C121   1.288       .  A
O115       Zr117   2.428   1_554  S
O116        C120   1.287       .  A
O116       Zr861   2.424       .  S
Zr117       O297   2.422       .  S
Zr117       O860   2.424   1_455  S
Zr117       O490   2.339   1_556  S
Zr117       O677   2.334       .  S
Zr117       O499   2.337   1_556  S
Zr117       O683   2.330       .  S
O118       Zr144   2.352       .  S
O118       Zr147   2.347       .  S
O118       Zr489   2.339   1_544  S
O119       Zr146   2.328       .  S
O119       Zr675   2.334   1_545  S
O119      Zr1075   2.340   1_455  S
C120        C186   1.434       .  S
C121        C180   1.435       .  S
C122        C168   1.416       .  S
C123        C164   1.428       .  S
H124        O497   0.965       .  S
O125       Zr146   2.335       .  S
O125       Zr675   2.330   1_545  S
O125       Zr330   2.342       .  S
O125        H496   0.965   1_545  S
H126       O1243   0.965       .  S
O127       Zr147   2.337       .  S
O127       Zr489   2.337   1_544  S
O127       Zr889   2.340   1_455  S
O127       H1242   0.965   1_445  S
O128        C151   1.294       .  A
O128       Zr144   2.456       .  S
O129        C152   1.295       .  A
O129       Zr145   2.458       .  S
O130        C153   1.287       .  A
O130       Zr146   2.423       .  S
O131        C154   1.296       .  A
O131       Zr147   2.463       .  S
O132        C155   1.298       .  A
O132       Zr891   2.475       .  S
O133        C156   1.290       .  A
O133       Zr890   2.436       .  S
O134        C157   1.297       .  A
O134       Zr334   2.471       .  S
O135        C158   1.294       .  A
O135       Zr148   2.454       .  S
O136        C157   1.282       .  A
O136       Zr146   2.398       .  S
O137        C158   1.292       .  A
O137       Zr147   2.443       .  S
O138        C153   1.297       .  A
O138       Zr330   2.470       .  S
O139        C156   1.288       .  A
O139       Zr331   2.427       .  S
O140        C155   1.286       .  A
O140       Zr145   2.415       .  S
O141        C154   1.295       .  A
O141       Zr144   2.455       .  S
O142        C151   1.288       .  A
O142       Zr148   2.425       .  S
O143        C152   1.287       .  A
O143       Zr892   2.421       .  S
Zr144       O482   2.450   1_545  S
Zr144       O324   2.470   1_554  S
Zr144       O162   2.347       .  S
Zr144       O311   2.342   1_554  S
Zr144       O336   2.346   1_554  S
Zr145       O481   2.453   1_544  S
Zr145       O325   2.427   1_554  S
Zr145      O1049   2.340   1_554  S
Zr145       O871   2.340       .  S
Zr145       O893   2.343       .  S
Zr145      O1090   2.333   1_554  S
Zr146       O486   2.413   1_545  S
Zr146       O877   2.436   1_455  S
Zr146       O150   2.344       .  S
Zr146       O160   2.335       .  S
Zr147       O485   2.459   1_545  S
Zr147       O876   2.475   1_455  S
Zr147       O149   2.349       .  S
Zr147       O162   2.356       .  S
Zr148       O320   2.470   1_554  S
Zr148       O887   2.420   1_455  S
Zr148       O149   2.349       .  S
Zr148       O162   2.344       .  S
Zr148       O336   2.342   1_554  S
Zr148       O346   2.336   1_554  S
O149       Zr889   2.343   1_455  S
O150       Zr330   2.346       .  S
O150       Zr334   2.342       .  S
C151        C181   1.435       .  S
C152        C183   1.434       .  S
C153        C176   1.440       .  S
C154        C173   1.450       .  S
C155        C171   1.439       .  S
C156        C178   1.428       .  S
C157        C169   1.430       .  S
C158        C165   1.441       .  S
H159        O904   0.965       .  S
O160      Zr1075   2.333   1_455  S
O160       Zr334   2.336       .  S
O160        H903   0.965   1_455  S
H161        O162   0.965       .  S
C163        C164   1.202       .  T
C165        C166   1.210       .  T
C167        C168   1.195       .  T
C169        C170   1.203       .  T
C171        C172   1.209       .  T
C173        C174   1.215       .  T
C175        C176   1.209       .  T
C177        C178   1.202       .  T
C179        C180   1.206       .  T
C181        C182   1.206       .  T
C183        C184   1.206   1_554  T
C185        C187   1.438       .  S
C185        C186   1.205       .  T
C187        C188   1.415       .  A
C188        C189   1.414       .  A
C188        H193   1.082       .  S
C190        C191   1.405       .  A
C190        H194   1.082       .  S
C191        C192   1.395       .  A
C191        C216   1.483       .  S
C192        H195   1.084       .  S
C196        C197   1.418       .  A
C196        C201   1.405       .  A
C196        C370   1.438       .  S
C197        C198   1.413       .  A
C197        H202   1.083       .  S
C198        C199   1.409       .  A
C199        C200   1.396       .  A
C199        H203   1.076       .  S
C200        C201   1.391       .  A
C200        C207   1.482       .  S
C201        H204   1.084       .  S
C205        C206   1.403       .  A
C205        C210   1.415       .  A
C205        C368   1.439       .  S
C206        C207   1.395       .  A
C206        H211   1.084       .  S
C207        C208   1.404       .  A
C208        C209   1.412       .  A
C208        H212   1.082       .  S
C209        C210   1.414       .  A
C209        C218   1.514       .  S
C210        H213   1.083       .  S
C214        C215   1.407       .  A
C214        C219   1.417       .  A
C214        C365   1.439       .  S
C215        C216   1.393       .  A
C215        H220   1.084       .  S
C216        C217   1.396       .  A
C217        C218   1.408       .  A
C217        H221   1.076       .  S
C218        C219   1.412       .  A
C219        H222   1.083       .  S
C223        C224   1.410       .  A
C223        C228   1.409       .  A
C223        C363   1.433       .  S
C224        C225   1.400       .  A
C224        H229   1.084       .  S
C225        C226   1.405       .  A
C225        C234   1.489       .  S
C226        C227   1.405       .  A
C226        H230   1.086       .  S
C227        C228   1.398       .  A
C227        C252   1.487       .  S
C228        H231   1.084       .  S
C232        C233   1.411       .  A
C232        C237   1.424       .  A
C232        C361   1.442       .  S
C233        C234   1.395       .  A
C233        H238   1.083       .  S
C234        C235   1.394       .  A
C235        C236   1.403       .  A
C235        H239   1.063       .  S
C236        C237   1.415       .  A
C236        C243   1.522       .  S
C237        H240   1.083       .  S
C241        C242   1.416       .  A
C241        C246   1.418       .  A
C241        C360   1.454       .  S
C242        C243   1.411       .  A
C242        H247   1.083       .  S
C243        C244   1.413       .  A
C244        C245   1.413       .  A
C244        H248   1.078       .  S
C245        C246   1.412       .  A
C245        C254   1.523       .  S
C246        H249   1.083       .  S
C250        C251   1.410       .  A
C250        C255   1.425       .  A
C250        C358   1.442       .  S
C251        C252   1.394       .  A
C251        H256   1.084       .  S
C252        C253   1.393       .  A
C253        C254   1.402       .  A
C253        H257   1.062       .  S
C254        C255   1.416       .  A
C255        H258   1.083       .  S
C259        C260   1.405       .  A
C259        C264   1.422       .  A
C259        C356   1.433       .  S
C260        C261   1.389       .  A
C260        H265   1.084       .  S
C261        C262   1.392       .  A
C261        C272   1.478       .  S
C262        C263   1.400       .  A
C262        H266   1.062       .  S
C263        C264   1.414       .  A
C263        C279   1.517       .  S
C264        H267   1.083       .  S
C268        C269   1.406       .  A
C268        C273   1.404       .  A
C268        C353   1.422       .  S
C269        C270   1.396       .  A
C269        H274   1.084       .  S
C270        C271   1.403       .  A
C270        C288   1.480       .  S
C271        C272   1.404       .  A
C271        H275   1.086       .  S
C272        C273   1.394       .  A
C273        H276   1.084       .  S
C277        C278   1.413       .  A
C277        C282   1.411       .  A
C277        C352   1.446       .  S
C278        C279   1.409       .  A
C278        H283   1.083       .  S
C279        C280   1.414       .  A
C280        C281   1.413       .  A
C280        H284   1.079       .  S
C281        C282   1.408       .  A
C281        C290   1.517       .  S
C282        H285   1.083       .  S
C286        C287   1.405       .  A
C286        C291   1.419       .  A
C286        C349   1.431       .  S
C287        C288   1.390       .  A
C287        H292   1.084       .  S
C288        C289   1.395       .  A
C289        C290   1.403       .  A
C289        H293   1.064       .  S
C290        C291   1.413       .  A
C291        H294   1.083       .  S
O295        C306   1.294       .  A
O295       Zr703   2.453       .  S
O296        C307   1.293       .  A
O296       Zr702   2.450       .  S
O297        C308   1.287       .  A
O298        C309   1.284       .  A
O298       Zr303   2.406       .  S
O299        C309   1.295       .  A
O299       Zr705   2.459       .  S
O300        C308   1.285       .  A
O300       Zr704   2.413       .  S
O301        C307   1.288       .  A
O301       Zr303   2.428       .  S
O302        C306   1.287       .  A
O302      Zr1047   2.424       .  S
Zr303      O1046   2.424   1_455  S
Zr303       O676   2.339       .  S
Zr303       O491   2.334       .  S
Zr303       O685   2.337       .  S
Zr303       O497   2.330       .  S
O304       Zr675   2.339   1_545  S
O304       Zr330   2.352       .  S
O304       Zr333   2.347       .  S
O305       Zr489   2.334   1_545  S
O305       Zr889   2.340   1_456  S
O305       Zr332   2.328       .  S
C306        C372   1.434       .  S
C307        C366   1.435       .  S
C308        C354   1.417       .  S
C309        C350   1.428       .  S
H310        O683   0.965       .  S
O311       Zr489   2.330   1_545  S
O311       Zr332   2.335       .  S
O311        H682   0.965   1_545  S
H312       O1429   0.965       .  S
O313       Zr675   2.337   1_545  S
O313      Zr1075   2.340   1_455  S
O313       Zr333   2.337       .  S
O313       H1428   0.965   1_445  S
O314        C337   1.294       .  A
O314       Zr330   2.456       .  S
O315        C338   1.295       .  A
O315       Zr331   2.458       .  S
O316        C339   1.287       .  A
O316       Zr332   2.423       .  S
O317        C340   1.296       .  A
O317       Zr333   2.463       .  S
O318        C341   1.298       .  A
O318      Zr1077   2.475       .  S
O319        C342   1.290       .  A
O319      Zr1076   2.436       .  S
O320        C343   1.297       .  A
O321        C344   1.294       .  A
O321       Zr334   2.454       .  S
O322        C343   1.282       .  A
O322       Zr332   2.399       .  S
O323        C344   1.292       .  A
O323       Zr333   2.443       .  S
O324        C339   1.297       .  A
O325        C342   1.288       .  A
O326        C341   1.286       .  A
O326       Zr331   2.415       .  S
O327        C340   1.295       .  A
O327       Zr330   2.455       .  S
O328        C337   1.288       .  A
O328       Zr334   2.425       .  S
O329        C338   1.287       .  A
O329      Zr1078   2.420       .  S
Zr330       O668   2.450   1_545  S
Zr330       O348   2.347       .  S
Zr331       O667   2.453   1_545  S
Zr331       O863   2.340       .  S
Zr331      O1057   2.340       .  S
Zr331      O1079   2.343       .  S
Zr331       O904   2.333       .  S
Zr332       O672   2.413   1_545  S
Zr332      O1063   2.436   1_455  S
Zr332       O336   2.344       .  S
Zr332       O346   2.335       .  S
Zr333       O671   2.459   1_545  S
Zr333      O1062   2.475   1_455  S
Zr333       O335   2.349       .  S
Zr333       O348   2.356       .  S
Zr334      O1073   2.420   1_455  S
Zr334       O335   2.349       .  S
Zr334       O348   2.344       .  S
O335      Zr1075   2.343   1_455  S
C337        C367   1.435       .  S
C338        C369   1.434       .  S
C339        C362   1.440       .  S
C340        C359   1.451       .  S
C341        C357   1.439       .  S
C342        C364   1.428       .  S
C343        C355   1.430       .  S
C344        C351   1.441       .  S
H345       O1090   0.965       .  S
O346       Zr889   2.333   1_456  S
O346       H1089   0.965   1_455  S
H347        O348   0.965       .  S
C349        C350   1.202       .  T
C351        C352   1.210       .  T
C353        C354   1.195       .  T
C355        C356   1.203       .  T
C357        C358   1.209       .  T
C359        C360   1.215       .  T
C361        C362   1.209       .  T
C363        C364   1.202       .  T
C365        C366   1.206       .  T
C367        C368   1.206       .  T
C369        C370   1.206       .  T
C371        C372   1.205       .  T
C373        C374   1.415       .  A
C373        C564   1.403       .  A
C373        C743   1.438       .  S
C374        C375   1.414       .  A
C374        H379   1.082       .  S
C375        C562   1.412       .  A
C375        C570   1.516       .  S
C376        C561   1.412       .  A
C376        C377   1.405       .  A
C376        H380   1.082       .  S
C377        C378   1.395       .  A
C377        C402   1.483       .  S
C378        C559   1.403       .  A
C378        H381   1.084       .  S
C382        C383   1.418       .  A
C382        C387   1.405   1_556  A
C382        C556   1.438       .  S
C383        C384   1.413       .  A
C383        H388   1.083       .  S
C384        C385   1.409       .  A
C384        C561   1.516       .  S
C385        C386   1.396   1_556  A
C385        H389   1.076       .  S
C386        C387   1.391       .  A
C386        C393   1.482       .  S
C387        H390   1.084       .  S
C391        C392   1.403       .  A
C391        C396   1.415       .  A
C391        C554   1.439       .  S
C392        C393   1.395       .  A
C392        H397   1.084       .  S
C393        C394   1.404       .  A
C394        C395   1.412       .  A
C394        H398   1.082       .  S
C395        C396   1.414       .  A
C395        C404   1.514       .  S
C396        H399   1.083       .  S
C400        C401   1.407   1_554  A
C400        C405   1.417       .  A
C400        C551   1.439       .  S
C401        C402   1.393       .  A
C401        H406   1.084       .  S
C402        C403   1.396   1_556  A
C403        C404   1.408       .  A
C403        H407   1.076       .  S
C404        C405   1.412       .  A
C405        H408   1.083       .  S
C409        C410   1.410       .  A
C409        C414   1.409       .  A
C409        C549   1.433       .  S
C410        C411   1.399       .  A
C410        H415   1.084       .  S
C411        C412   1.405       .  A
C411        C420   1.488       .  S
C412        C413   1.405       .  A
C412        H416   1.086       .  S
C413        C414   1.398       .  A
C413        C438   1.487       .  S
C414        H417   1.084       .  S
C418        C419   1.411       .  A
C418        C423   1.424       .  A
C418        C547   1.442       .  S
C419        C420   1.395       .  A
C419        H424   1.083       .  S
C420        C421   1.394       .  A
C421        C422   1.403       .  A
C421        H425   1.063       .  S
C422        C423   1.415       .  A
C422        C429   1.522       .  S
C423        H426   1.083       .  S
C427        C428   1.416       .  A
C427        C432   1.418       .  A
C427        C546   1.454       .  S
C428        C429   1.411       .  A
C428        H433   1.083       .  S
C429        C430   1.413       .  A
C430        C431   1.413       .  A
C430        H434   1.078       .  S
C431        C432   1.412       .  A
C431        C440   1.523       .  S
C432        H435   1.083       .  S
C436        C437   1.410       .  A
C436        C441   1.425       .  A
C436        C544   1.442       .  S
C437        C438   1.394       .  A
C437        H442   1.084       .  S
C438        C439   1.393       .  A
C439        C440   1.402       .  A
C439        H443   1.062       .  S
C440        C441   1.416       .  A
C441        H444   1.083       .  S
C445        C446   1.405       .  A
C445        C450   1.422       .  A
C445        C542   1.433       .  S
C446        C447   1.389       .  A
C446        H451   1.084       .  S
C447        C448   1.392       .  A
C447        C458   1.478       .  S
C448        C449   1.400       .  A
C448        H452   1.062       .  S
C449        C450   1.414       .  A
C449        C465   1.517       .  S
C450        H453   1.083       .  S
C454        C455   1.406       .  A
C454        C459   1.404       .  A
C454        C539   1.422       .  S
C455        C456   1.396       .  A
C455        H460   1.084       .  S
C456        C457   1.403       .  A
C456        C474   1.480       .  S
C457        C458   1.404       .  A
C457        H461   1.086       .  S
C458        C459   1.394       .  A
C459        H462   1.084       .  S
C463        C464   1.413       .  A
C463        C468   1.411       .  A
C463        C538   1.446       .  S
C464        C465   1.409       .  A
C464        H469   1.083       .  S
C465        C466   1.414       .  A
C466        C467   1.413       .  A
C466        H470   1.079       .  S
C467        C468   1.408       .  A
C467        C476   1.517       .  S
C468        H471   1.083       .  S
C472        C473   1.405       .  A
C472        C477   1.419       .  A
C472        C535   1.431       .  S
C473        C474   1.390       .  A
C473        H478   1.084       .  S
C474        C475   1.395       .  A
C475        C476   1.403       .  A
C475        H479   1.064       .  S
C476        C477   1.413       .  A
C477        H480   1.083       .  S
O481        C492   1.294       .  A
O482        C493   1.293       .  A
O483        C494   1.287       .  A
O483       Zr675   2.422       .  S
O484        C495   1.284       .  A
O484       Zr489   2.406   1_554  S
O485        C495   1.295       .  A
O486        C494   1.285       .  A
O487        C493   1.288       .  A
O487       Zr489   2.428   1_554  S
O488        C492   1.287       .  A
O488      Zr1233   2.424       .  S
Zr489       O669   2.422       .  S
Zr489      O1232   2.424   1_455  S
O490       Zr516   2.352       .  S
O490       Zr519   2.347       .  S
O491      Zr1447   2.340   1_455  S
O491       Zr518   2.328       .  S
C492        C558   1.434       .  S
C493        C552   1.435       .  S
C494        C540   1.416       .  S
C495        C536   1.428       .  S
O497       Zr702   2.342       .  S
O497       Zr518   2.335       .  S
H498        O871   0.965   1_565  S
O499      Zr1261   2.340   1_455  S
O499       Zr519   2.337       .  S
O499        H870   0.965   1_455  S
O500        C523   1.294       .  A
O500       Zr516   2.456       .  S
O501        C524   1.295       .  A
O501       Zr517   2.458       .  S
O502        C525   1.287       .  A
O502       Zr518   2.423       .  S
O503        C526   1.296       .  A
O503       Zr519   2.463       .  S
O504        C527   1.298       .  A
O504      Zr1263   2.475       .  S
O505        C528   1.290       .  A
O505      Zr1262   2.436       .  S
O506        C529   1.297       .  A
O506       Zr706   2.470       .  S
O507        C530   1.294       .  A
O507       Zr520   2.454       .  S
O508        C529   1.282       .  A
O508       Zr518   2.398       .  S
O509        C530   1.292       .  A
O509       Zr519   2.443       .  S
O510        C525   1.297       .  A
O510       Zr702   2.470       .  S
O511        C528   1.288       .  A
O511       Zr703   2.427       .  S
O512        C527   1.286       .  A
O512       Zr517   2.415       .  S
O513        C526   1.295       .  A
O513       Zr516   2.455       .  S
O514        C523   1.288       .  A
O514       Zr520   2.426       .  S
O515        C524   1.287       .  A
O515      Zr1264   2.420       .  S
Zr516       O696   2.470   1_554  S
Zr516       O683   2.342   1_554  S
Zr516       O708   2.346   1_554  S
Zr516       O534   2.347       .  S
Zr517       O697   2.427   1_554  S
Zr517      O1421   2.340   1_554  S
Zr517      O1243   2.340       .  S
Zr517      O1265   2.343       .  S
Zr517      O1462   2.333   1_554  S
Zr518      O1249   2.436   1_455  S
Zr518       O522   2.344       .  S
Zr518       O532   2.335       .  S
Zr519      O1248   2.475   1_455  S
Zr519       O521   2.349       .  S
Zr519       O534   2.356       .  S
Zr520       O692   2.471   1_554  S
Zr520      O1259   2.420   1_455  S
Zr520       O521   2.349       .  S
Zr520       O708   2.342   1_554  S
Zr520       O534   2.344       .  S
Zr520       O718   2.336   1_554  S
O521      Zr1261   2.343   1_455  S
O522       Zr702   2.346       .  S
O522       Zr706   2.342       .  S
C523        C553   1.435       .  S
C524        C555   1.434       .  S
C525        C548   1.440       .  S
C526        C545   1.450       .  S
C527        C543   1.439       .  S
C528        C550   1.428       .  S
C529        C541   1.430       .  S
C530        C537   1.441       .  S
H531       O1276   0.965       .  S
O532      Zr1447   2.333   1_455  S
O532       Zr706   2.336       .  S
O532       H1275   0.965   1_455  S
H533        O534   0.965       .  S
C535        C536   1.202       .  T
C537        C538   1.210       .  T
C539        C540   1.195       .  T
C541        C542   1.203       .  T
C543        C544   1.209       .  T
C545        C546   1.215       .  T
C547        C548   1.209       .  T
C549        C550   1.202       .  T
C551        C552   1.206       .  T
C553        C554   1.206       .  T
C555        C556   1.206   1_554  T
C557        C559   1.438       .  S
C557        C558   1.205       .  T
C559        C560   1.415       .  A
C560        C561   1.414       .  A
C560        H565   1.082       .  S
C562        C563   1.405       .  A
C562        H566   1.082       .  S
C563        C564   1.395       .  A
C563        C588   1.483       .  S
C564        H567   1.084       .  S
C568        C569   1.418       .  A
C568        C573   1.405       .  A
C568        C742   1.438       .  S
C569        C570   1.413       .  A
C569        H574   1.083       .  S
C570        C571   1.409       .  A
C571        C572   1.396       .  A
C571        H575   1.076       .  S
C572        C573   1.391       .  A
C572        C579   1.482       .  S
C573        H576   1.084       .  S
C577        C578   1.403       .  A
C577        C582   1.415       .  A
C577        C740   1.439       .  S
C578        C579   1.395       .  A
C578        H583   1.084       .  S
C579        C580   1.404       .  A
C580        C581   1.412       .  A
C580        H584   1.082       .  S
C581        C582   1.414       .  A
C581        C590   1.514       .  S
C582        H585   1.083       .  S
C586        C587   1.407       .  A
C586        C591   1.417       .  A
C586        C737   1.439       .  S
C587        C588   1.393       .  A
C587        H592   1.084       .  S
C588        C589   1.396       .  A
C589        C590   1.408       .  A
C589        H593   1.076       .  S
C590        C591   1.412       .  A
C591        H594   1.083       .  S
C595        C596   1.410       .  A
C595        C600   1.409       .  A
C595        C735   1.433       .  S
C596        C597   1.399       .  A
C596        H601   1.084       .  S
C597        C598   1.405       .  A
C597        C606   1.488       .  S
C598        C599   1.405       .  A
C598        H602   1.086       .  S
C599        C600   1.398       .  A
C599        C624   1.487       .  S
C600        H603   1.084       .  S
C604        C605   1.410       .  A
C604        C609   1.424       .  A
C604        C733   1.442       .  S
C605        C606   1.395       .  A
C605        H610   1.083       .  S
C606        C607   1.394       .  A
C607        C608   1.403       .  A
C607        H611   1.063       .  S
C608        C609   1.415       .  A
C608        C615   1.522       .  S
C609        H612   1.083       .  S
C613        C614   1.416       .  A
C613        C618   1.418       .  A
C613        C732   1.454       .  S
C614        C615   1.411       .  A
C614        H619   1.083       .  S
C615        C616   1.413       .  A
C616        C617   1.413       .  A
C616        H620   1.078       .  S
C617        C618   1.412       .  A
C617        C626   1.523       .  S
C618        H621   1.083       .  S
C622        C623   1.410       .  A
C622        C627   1.425       .  A
C622        C730   1.442       .  S
C623        C624   1.394       .  A
C623        H628   1.084       .  S
C624        C625   1.393       .  A
C625        C626   1.402       .  A
C625        H629   1.062       .  S
C626        C627   1.416       .  A
C627        H630   1.083       .  S
C631        C632   1.405       .  A
C631        C636   1.422       .  A
C631        C728   1.433       .  S
C632        C633   1.389       .  A
C632        H637   1.084       .  S
C633        C634   1.392       .  A
C633        C644   1.478       .  S
C634        C635   1.400       .  A
C634        H638   1.062       .  S
C635        C636   1.414       .  A
C635        C651   1.517       .  S
C636        H639   1.083       .  S
C640        C641   1.406       .  A
C640        C645   1.404       .  A
C640        C725   1.422       .  S
C641        C642   1.396       .  A
C641        H646   1.084       .  S
C642        C643   1.403       .  A
C642        C660   1.480       .  S
C643        C644   1.404       .  A
C643        H647   1.086       .  S
C644        C645   1.394       .  A
C645        H648   1.084       .  S
C649        C650   1.413       .  A
C649        C654   1.411       .  A
C649        C724   1.446       .  S
C650        C651   1.409       .  A
C650        H655   1.083       .  S
C651        C652   1.414       .  A
C652        C653   1.413       .  A
C652        H656   1.079       .  S
C653        C654   1.408       .  A
C653        C662   1.517       .  S
C654        H657   1.083       .  S
C658        C659   1.405       .  A
C658        C663   1.419       .  A
C658        C721   1.431       .  S
C659        C660   1.390       .  A
C659        H664   1.084       .  S
C660        C661   1.395       .  A
C661        C662   1.403       .  A
C661        H665   1.064       .  S
C662        C663   1.413       .  A
C663        H666   1.083       .  S
O667        C678   1.294       .  A
O668        C679   1.293       .  A
O669        C680   1.287       .  A
O670        C681   1.284       .  A
O670       Zr675   2.406       .  S
O671        C681   1.295       .  A
O672        C680   1.285       .  A
O673        C679   1.288       .  A
O673       Zr675   2.428       .  S
O674        C678   1.287       .  A
O674      Zr1419   2.424       .  S
Zr675      O1418   2.424   1_455  S
O676       Zr702   2.352       .  S
O676       Zr705   2.347       .  S
O677      Zr1261   2.340   1_456  S
O677       Zr704   2.328       .  S
C678        C744   1.434       .  S
C679        C738   1.435       .  S
C680        C726   1.416       .  S
C681        C722   1.428       .  S
O683       Zr704   2.335       .  S
H684       O1057   0.965   1_565  S
O685      Zr1447   2.340   1_455  S
O685       Zr705   2.337       .  S
O685       H1056   0.965   1_455  S
O686        C709   1.294       .  A
O686       Zr702   2.456       .  S
O687        C710   1.295       .  A
O687       Zr703   2.458       .  S
O688        C711   1.287       .  A
O688       Zr704   2.422       .  S
O689        C712   1.296       .  A
O689       Zr705   2.463       .  S
O690        C713   1.298       .  A
O690      Zr1449   2.475       .  S
O691        C714   1.290       .  A
O691      Zr1448   2.436       .  S
O692        C715   1.297       .  A
O693        C716   1.294       .  A
O693       Zr706   2.454       .  S
O694        C715   1.282       .  A
O694       Zr704   2.398       .  S
O695        C716   1.292       .  A
O695       Zr705   2.443       .  S
O696        C711   1.297       .  A
O697        C714   1.288       .  A
O698        C713   1.286       .  A
O698       Zr703   2.415       .  S
O699        C712   1.295       .  A
O699       Zr702   2.455       .  S
O700        C709   1.288       .  A
O700       Zr706   2.425       .  S
O701        C710   1.287       .  A
O701      Zr1450   2.420       .  S
Zr702       O720   2.347       .  S
Zr703      O1235   2.340       .  S
Zr703      O1429   2.340       .  S
Zr703      O1451   2.343       .  S
Zr703      O1276   2.333       .  S
Zr704      O1435   2.436   1_455  S
Zr704       O708   2.344       .  S
Zr704       O718   2.335       .  S
Zr705      O1434   2.475   1_455  S
Zr705       O707   2.349       .  S
Zr705       O720   2.356       .  S
Zr706      O1445   2.420   1_455  S
Zr706       O707   2.349       .  S
Zr706       O720   2.344       .  S
O707      Zr1447   2.343   1_455  S
C709        C739   1.435       .  S
C710        C741   1.434       .  S
C711        C734   1.440       .  S
C712        C731   1.450       .  S
C713        C729   1.439       .  S
C714        C736   1.428       .  S
C715        C727   1.430       .  S
C716        C723   1.441       .  S
H717       O1462   0.965       .  S
O718      Zr1261   2.333   1_456  S
O718       H1461   0.965   1_455  S
H719        O720   0.965       .  S
C721        C722   1.202       .  T
C723        C724   1.210       .  T
C725        C726   1.195       .  T
C727        C728   1.203       .  T
C729        C730   1.209       .  T
C731        C732   1.215       .  T
C733        C734   1.209       .  T
C735        C736   1.202       .  T
C737        C738   1.206       .  T
C739        C740   1.206       .  T
C741        C742   1.206       .  T
C743        C744   1.205       .  T
C745        C746   1.415       .  A
C745        C936   1.403       .  A
C745       C1115   1.438       .  S
C746        C747   1.414       .  A
C746        H751   1.082       .  S
C747        C934   1.412       .  A
C747        C942   1.516       .  S
C748        C933   1.412       .  A
C748        C749   1.405       .  A
C748        H752   1.082       .  S
C749        C750   1.395       .  A
C749        C774   1.483       .  S
C750        C931   1.403       .  A
C750        H753   1.084       .  S
C754        C755   1.418       .  A
C754        C759   1.405   1_556  A
C754        C928   1.438       .  S
C755        C756   1.413       .  A
C755        H760   1.083       .  S
C756        C757   1.409       .  A
C756        C933   1.516       .  S
C757        C758   1.396   1_556  A
C757        H761   1.076       .  S
C758        C759   1.391       .  A
C758        C765   1.482       .  S
C759        H762   1.084       .  S
C763        C764   1.403       .  A
C763        C768   1.415       .  A
C763        C926   1.439       .  S
C764        C765   1.395       .  A
C764        H769   1.084       .  S
C765        C766   1.404       .  A
C766        C767   1.412       .  A
C766        H770   1.082       .  S
C767        C768   1.414       .  A
C767        C776   1.514       .  S
C768        H771   1.083       .  S
C772        C773   1.407   1_554  A
C772        C777   1.417       .  A
C772        C923   1.439       .  S
C773        C774   1.393       .  A
C773        H778   1.084       .  S
C774        C775   1.396   1_556  A
C775        C776   1.408       .  A
C775        H779   1.076       .  S
C776        C777   1.412       .  A
C777        H780   1.083       .  S
C781        C782   1.410       .  A
C781        C786   1.409       .  A
C781        C921   1.433       .  S
C782        C783   1.399       .  A
C782        H787   1.084       .  S
C783        C784   1.405       .  A
C783        C792   1.488       .  S
C784        C785   1.405       .  A
C784        H788   1.086       .  S
C785        C786   1.398       .  A
C785        C810   1.487       .  S
C786        H789   1.084       .  S
C790        C791   1.411       .  A
C790        C795   1.424       .  A
C790        C919   1.442       .  S
C791        C792   1.395       .  A
C791        H796   1.083       .  S
C792        C793   1.394       .  A
C793        C794   1.403       .  A
C793        H797   1.063       .  S
C794        C795   1.415       .  A
C794        C801   1.522       .  S
C795        H798   1.083       .  S
C799        C800   1.416       .  A
C799        C804   1.418       .  A
C799        C918   1.454       .  S
C800        C801   1.411       .  A
C800        H805   1.083       .  S
C801        C802   1.413       .  A
C802        C803   1.413       .  A
C802        H806   1.078       .  S
C803        C804   1.412       .  A
C803        C812   1.523       .  S
C804        H807   1.083       .  S
C808        C809   1.410       .  A
C808        C813   1.425       .  A
C808        C916   1.442       .  S
C809        C810   1.394       .  A
C809        H814   1.084       .  S
C810        C811   1.393       .  A
C811        C812   1.402       .  A
C811        H815   1.062       .  S
C812        C813   1.416       .  A
C813        H816   1.083       .  S
C817        C818   1.405       .  A
C817        C822   1.422       .  A
C817        C914   1.433       .  S
C818        C819   1.389       .  A
C818        H823   1.084       .  S
C819        C820   1.392       .  A
C819        C830   1.478       .  S
C820        C821   1.400       .  A
C820        H824   1.062       .  S
C821        C822   1.414       .  A
C821        C837   1.517       .  S
C822        H825   1.083       .  S
C826        C827   1.406       .  A
C826        C831   1.404       .  A
C826        C911   1.422       .  S
C827        C828   1.396       .  A
C827        H832   1.084       .  S
C828        C829   1.403       .  A
C828        C846   1.480       .  S
C829        C830   1.404       .  A
C829        H833   1.086       .  S
C830        C831   1.394       .  A
C831        H834   1.084       .  S
C835        C836   1.413       .  A
C835        C840   1.411       .  A
C835        C910   1.446       .  S
C836        C837   1.409       .  A
C836        H841   1.083       .  S
C837        C838   1.414       .  A
C838        C839   1.413       .  A
C838        H842   1.079       .  S
C839        C840   1.408       .  A
C839        C848   1.517       .  S
C840        H843   1.083       .  S
C844        C845   1.405       .  A
C844        C849   1.419       .  A
C844        C907   1.431       .  S
C845        C846   1.390       .  A
C845        H850   1.084       .  S
C846        C847   1.395       .  A
C847        C848   1.403       .  A
C847        H851   1.064       .  S
C848        C849   1.413       .  A
C849        H852   1.083       .  S
O853        C864   1.294       .  A
O853      Zr1261   2.453   1_556  S
O854        C865   1.293       .  A
O854      Zr1260   2.450       .  S
O855        C866   1.287       .  A
O855      Zr1047   2.422       .  S
O856        C867   1.284       .  A
O856       Zr861   2.406   1_554  S
O857        C867   1.295       .  A
O857      Zr1263   2.459       .  S
O858        C866   1.285       .  A
O858      Zr1262   2.413       .  S
O859        C865   1.288       .  A
O859       Zr861   2.428   1_554  S
O860        C864   1.287       .  A
Zr861      O1041   2.422       .  S
Zr861      O1234   2.339   1_556  S
Zr861      O1421   2.334       .  S
Zr861      O1243   2.337   1_556  S
Zr861      O1427   2.330       .  S
O862      Zr1233   2.339   1_544  S
O862       Zr888   2.352       .  S
O862       Zr891   2.347       .  S
O863      Zr1419   2.334   1_545  S
O863       Zr890   2.328       .  S
C864        C930   1.434       .  S
C865        C924   1.435       .  S
C866        C912   1.416       .  S
C867        C908   1.428       .  S
H868       O1241   0.965       .  S
O869      Zr1419   2.330   1_545  S
O869      Zr1074   2.342       .  S
O869       Zr890   2.335       .  S
O869       H1240   0.965   1_545  S
O871      Zr1233   2.337   1_544  S
O871       Zr891   2.337       .  S
O872        C895   1.294       .  A
O872       Zr888   2.456       .  S
O873        C896   1.295       .  A
O873       Zr889   2.458       .  S
O874        C897   1.287       .  A
O874       Zr890   2.423       .  S
O875        C898   1.296       .  A
O875       Zr891   2.463       .  S
O876        C899   1.298       .  A
O877        C900   1.290       .  A
O878        C901   1.297       .  A
O878      Zr1078   2.470       .  S
O879        C902   1.294       .  A
O879       Zr892   2.454       .  S
O880        C901   1.282       .  A
O880       Zr890   2.398       .  S
O881        C902   1.292       .  A
O881       Zr891   2.443       .  S
O882        C897   1.297       .  A
O882      Zr1074   2.470       .  S
O883        C900   1.288       .  A
O883      Zr1075   2.427       .  S
O884        C899   1.286       .  A
O884       Zr889   2.415       .  S
O885        C898   1.295       .  A
O885       Zr888   2.455       .  S
O886        C895   1.288       .  A
O886       Zr892   2.426       .  S
O887        C896   1.287       .  A
Zr888      O1226   2.450   1_545  S
Zr888      O1068   2.470   1_554  S
Zr888      O1055   2.342   1_554  S
Zr888      O1080   2.346   1_554  S
Zr888       O906   2.347       .  S
Zr889      O1225   2.453   1_544  S
Zr889      O1069   2.427   1_554  S
Zr890      O1230   2.413   1_545  S
Zr890       O894   2.344       .  S
Zr890       O904   2.335       .  S
Zr891      O1229   2.459   1_545  S
Zr891       O893   2.349       .  S
Zr891       O906   2.356       .  S
Zr892      O1064   2.471   1_554  S
Zr892       O893   2.349       .  S
Zr892      O1080   2.342   1_554  S
Zr892       O906   2.344       .  S
Zr892      O1090   2.336   1_554  S
O894      Zr1074   2.346       .  S
O894      Zr1078   2.342       .  S
C895        C925   1.435       .  S
C896        C927   1.434       .  S
C897        C920   1.440       .  S
C898        C917   1.450       .  S
C899        C915   1.439       .  S
C900        C922   1.428       .  S
C901        C913   1.430       .  S
C902        C909   1.441       .  S
O904      Zr1078   2.336       .  S
H905        O906   0.965       .  S
C907        C908   1.202       .  T
C909        C910   1.210       .  T
C911        C912   1.195       .  T
C913        C914   1.203       .  T
C915        C916   1.209       .  T
C917        C918   1.215       .  T
C919        C920   1.209       .  T
C921        C922   1.202       .  T
C923        C924   1.206       .  T
C925        C926   1.206       .  T
C927        C928   1.206   1_554  T
C929        C931   1.438       .  S
C929        C930   1.205       .  T
C931        C932   1.415       .  A
C932        C933   1.414       .  A
C932        H937   1.082       .  S
C934        C935   1.405       .  A
C934        H938   1.082       .  S
C935        C936   1.395       .  A
C935        C960   1.483       .  S
C936        H939   1.084       .  S
C940        C941   1.418       .  A
C940        C945   1.405       .  A
C940       C1114   1.438       .  S
C941        C942   1.413       .  A
C941        H946   1.083       .  S
C942        C943   1.409       .  A
C943        C944   1.396       .  A
C943        H947   1.076       .  S
C944        C945   1.391       .  A
C944        C951   1.482       .  S
C945        H948   1.084       .  S
C949        C950   1.403       .  A
C949        C954   1.415       .  A
C949       C1112   1.439       .  S
C950        C951   1.395       .  A
C950        H955   1.084       .  S
C951        C952   1.404       .  A
C952        C953   1.412       .  A
C952        H956   1.082       .  S
C953        C954   1.414       .  A
C953        C962   1.514       .  S
C954        H957   1.083       .  S
C958        C959   1.407       .  A
C958        C963   1.417       .  A
C958       C1109   1.439       .  S
C959        C960   1.393       .  A
C959        H964   1.084       .  S
C960        C961   1.396       .  A
C961        C962   1.408       .  A
C961        H965   1.076       .  S
C962        C963   1.412       .  A
C963        H966   1.083       .  S
C967        C968   1.410       .  A
C967        C972   1.409       .  A
C967       C1107   1.433       .  S
C968        C969   1.399       .  A
C968        H973   1.084       .  S
C969        C970   1.405       .  A
C969        C978   1.488       .  S
C970        C971   1.405       .  A
C970        H974   1.086       .  S
C971        C972   1.398       .  A
C971        C996   1.487       .  S
C972        H975   1.084       .  S
C976        C977   1.410       .  A
C976        C981   1.424       .  A
C976       C1105   1.442       .  S
C977        C978   1.395       .  A
C977        H982   1.083       .  S
C978        C979   1.394       .  A
C979        C980   1.403       .  A
C979        H983   1.063       .  S
C980        C981   1.415       .  A
C980        C987   1.522       .  S
C981        H984   1.083       .  S
C985        C986   1.416       .  A
C985        C990   1.418       .  A
C985       C1104   1.454       .  S
C986        C987   1.411       .  A
C986        H991   1.083       .  S
C987        C988   1.413       .  A
C988        C989   1.413       .  A
C988        H992   1.078       .  S
C989        C990   1.412       .  A
C989        C998   1.523       .  S
C990        H993   1.083       .  S
C994        C995   1.410       .  A
C994        C999   1.425       .  A
C994       C1102   1.442       .  S
C995        C996   1.394       .  A
C995       H1000   1.084       .  S
C996        C997   1.393       .  A
C997        C998   1.402       .  A
C997       H1001   1.062       .  S
C998        C999   1.416       .  A
C999       H1002   1.083       .  S
C1003      C1004   1.405       .  A
C1003      C1008   1.422       .  A
C1003      C1100   1.433       .  S
C1004      C1005   1.389       .  A
C1004      H1009   1.084       .  S
C1005      C1006   1.392       .  A
C1005      C1016   1.478       .  S
C1006      C1007   1.400       .  A
C1006      H1010   1.062       .  S
C1007      C1008   1.414       .  A
C1007      C1023   1.517       .  S
C1008      H1011   1.083       .  S
C1012      C1013   1.406       .  A
C1012      C1017   1.404       .  A
C1012      C1097   1.422       .  S
C1013      C1014   1.396       .  A
C1013      H1018   1.084       .  S
C1014      C1015   1.403       .  A
C1014      C1032   1.480       .  S
C1015      C1016   1.404       .  A
C1015      H1019   1.086       .  S
C1016      C1017   1.394       .  A
C1017      H1020   1.084       .  S
C1021      C1022   1.413       .  A
C1021      C1026   1.411       .  A
C1021      C1096   1.446       .  S
C1022      C1023   1.409       .  A
C1022      H1027   1.083       .  S
C1023      C1024   1.414       .  A
C1024      C1025   1.413       .  A
C1024      H1028   1.079       .  S
C1025      C1026   1.408       .  A
C1025      C1034   1.517       .  S
C1026      H1029   1.083       .  S
C1030      C1031   1.405       .  A
C1030      C1035   1.419       .  A
C1030      C1093   1.431       .  S
C1031      C1032   1.390       .  A
C1031      H1036   1.084       .  S
C1032      C1033   1.395       .  A
C1033      C1034   1.403       .  A
C1033      H1037   1.064       .  S
C1034      C1035   1.413       .  A
C1035      H1038   1.083       .  S
O1039      C1050   1.294       .  A
O1039     Zr1447   2.453       .  S
O1040      C1051   1.293       .  A
O1040     Zr1446   2.450       .  S
O1041      C1052   1.287       .  A
O1042      C1053   1.284       .  A
O1042     Zr1047   2.406       .  S
O1043      C1053   1.295       .  A
O1043     Zr1449   2.459       .  S
O1044      C1052   1.285       .  A
O1044     Zr1448   2.413       .  S
O1045      C1051   1.288       .  A
O1045     Zr1047   2.428       .  S
O1046      C1050   1.287       .  A
Zr1047     O1420   2.339       .  S
Zr1047     O1235   2.334       .  S
Zr1047     O1429   2.337       .  S
Zr1047     O1241   2.330       .  S
O1048     Zr1419   2.339   1_545  S
O1048     Zr1074   2.352       .  S
O1048     Zr1077   2.347       .  S
O1049     Zr1233   2.334   1_545  S
O1049     Zr1076   2.328       .  S
C1050      C1116   1.434       .  S
C1051      C1110   1.435       .  S
C1052      C1098   1.416       .  S
C1053      C1094   1.428       .  S
H1054      O1427   0.965       .  S
O1055     Zr1233   2.330   1_545  S
O1055     Zr1076   2.335       .  S
O1055      H1426   0.965   1_545  S
O1057     Zr1419   2.337   1_545  S
O1057     Zr1077   2.337       .  S
O1058      C1081   1.294       .  A
O1058     Zr1074   2.456       .  S
O1059      C1082   1.295       .  A
O1059     Zr1075   2.458       .  S
O1060      C1083   1.287       .  A
O1060     Zr1076   2.422       .  S
O1061      C1084   1.296       .  A
O1061     Zr1077   2.463       .  S
O1062      C1085   1.298       .  A
O1063      C1086   1.290       .  A
O1064      C1087   1.297       .  A
O1065      C1088   1.294       .  A
O1065     Zr1078   2.454       .  S
O1066      C1087   1.282       .  A
O1066     Zr1076   2.398       .  S
O1067      C1088   1.292       .  A
O1067     Zr1077   2.443       .  S
O1068      C1083   1.297       .  A
O1069      C1086   1.288       .  A
O1070      C1085   1.286       .  A
O1070     Zr1075   2.415       .  S
O1071      C1084   1.295       .  A
O1071     Zr1074   2.455       .  S
O1072      C1081   1.288       .  A
O1072     Zr1078   2.425       .  S
O1073      C1082   1.287       .  A
Zr1074     O1412   2.450   1_545  S
Zr1074     O1092   2.347       .  S
Zr1075     O1411   2.453   1_545  S
Zr1076     O1416   2.413   1_545  S
Zr1076     O1080   2.344       .  S
Zr1076     O1090   2.335       .  S
Zr1077     O1415   2.459   1_545  S
Zr1077     O1079   2.349       .  S
Zr1077     O1092   2.356       .  S
Zr1078     O1079   2.349       .  S
Zr1078     O1092   2.344       .  S
C1081      C1111   1.435       .  S
C1082      C1113   1.434       .  S
C1083      C1106   1.440       .  S
C1084      C1103   1.451       .  S
C1085      C1101   1.439       .  S
C1086      C1108   1.428       .  S
C1087      C1099   1.430       .  S
C1088      C1095   1.441       .  S
H1091      O1092   0.965       .  S
C1093      C1094   1.202       .  T
C1095      C1096   1.210       .  T
C1097      C1098   1.195       .  T
C1099      C1100   1.203       .  T
C1101      C1102   1.209       .  T
C1103      C1104   1.215       .  T
C1105      C1106   1.209       .  T
C1107      C1108   1.202       .  T
C1109      C1110   1.206       .  T
C1111      C1112   1.206       .  T
C1113      C1114   1.206       .  T
C1115      C1116   1.205       .  T
C1117      C1118   1.415       .  A
C1117      C1308   1.403       .  A
C1117      C1487   1.438       .  S
C1118      C1119   1.414       .  A
C1118      H1123   1.082       .  S
C1119      C1306   1.412       .  A
C1119      C1314   1.516       .  S
C1120      C1305   1.412       .  A
C1120      C1121   1.405       .  A
C1120      H1124   1.082       .  S
C1121      C1122   1.395       .  A
C1121      C1146   1.483       .  S
C1122      C1303   1.403       .  A
C1122      H1125   1.084       .  S
C1126      C1127   1.418       .  A
C1126      C1131   1.405   1_556  A
C1126      C1300   1.438       .  S
C1127      C1128   1.413       .  A
C1127      H1132   1.083       .  S
C1128      C1129   1.409       .  A
C1128      C1305   1.516       .  S
C1129      C1130   1.396   1_556  A
C1129      H1133   1.076       .  S
C1130      C1131   1.391       .  A
C1130      C1137   1.482       .  S
C1131      H1134   1.084       .  S
C1135      C1136   1.403       .  A
C1135      C1140   1.415       .  A
C1135      C1298   1.439       .  S
C1136      C1137   1.395       .  A
C1136      H1141   1.084       .  S
C1137      C1138   1.404       .  A
C1138      C1139   1.412       .  A
C1138      H1142   1.082       .  S
C1139      C1140   1.414       .  A
C1139      C1148   1.514       .  S
C1140      H1143   1.083       .  S
C1144      C1145   1.407   1_554  A
C1144      C1149   1.417       .  A
C1144      C1295   1.439       .  S
C1145      C1146   1.393       .  A
C1145      H1150   1.084       .  S
C1146      C1147   1.396   1_556  A
C1147      C1148   1.408       .  A
C1147      H1151   1.076       .  S
C1148      C1149   1.412       .  A
C1149      H1152   1.083       .  S
C1153      C1154   1.410       .  A
C1153      C1158   1.409       .  A
C1153      C1293   1.433       .  S
C1154      C1155   1.399       .  A
C1154      H1159   1.084       .  S
C1155      C1156   1.405       .  A
C1155      C1164   1.489       .  S
C1156      C1157   1.405       .  A
C1156      H1160   1.086       .  S
C1157      C1158   1.398       .  A
C1157      C1182   1.487       .  S
C1158      H1161   1.084       .  S
C1162      C1163   1.411       .  A
C1162      C1167   1.424       .  A
C1162      C1291   1.442       .  S
C1163      C1164   1.395       .  A
C1163      H1168   1.083       .  S
C1164      C1165   1.394       .  A
C1165      C1166   1.403       .  A
C1165      H1169   1.063       .  S
C1166      C1167   1.415       .  A
C1166      C1173   1.522       .  S
C1167      H1170   1.083       .  S
C1171      C1172   1.416       .  A
C1171      C1176   1.418       .  A
C1171      C1290   1.454       .  S
C1172      C1173   1.411       .  A
C1172      H1177   1.083       .  S
C1173      C1174   1.413       .  A
C1174      C1175   1.413       .  A
C1174      H1178   1.078       .  S
C1175      C1176   1.412       .  A
C1175      C1184   1.523       .  S
C1176      H1179   1.083       .  S
C1180      C1181   1.410       .  A
C1180      C1185   1.425       .  A
C1180      C1288   1.442       .  S
C1181      C1182   1.394       .  A
C1181      H1186   1.084       .  S
C1182      C1183   1.393       .  A
C1183      C1184   1.402       .  A
C1183      H1187   1.062       .  S
C1184      C1185   1.416       .  A
C1185      H1188   1.083       .  S
C1189      C1190   1.405       .  A
C1189      C1194   1.422       .  A
C1189      C1286   1.433       .  S
C1190      C1191   1.389       .  A
C1190      H1195   1.084       .  S
C1191      C1192   1.392       .  A
C1191      C1202   1.478       .  S
C1192      C1193   1.400       .  A
C1192      H1196   1.062       .  S
C1193      C1194   1.414       .  A
C1193      C1209   1.517       .  S
C1194      H1197   1.083       .  S
C1198      C1199   1.406       .  A
C1198      C1203   1.404       .  A
C1198      C1283   1.422       .  S
C1199      C1200   1.396       .  A
C1199      H1204   1.084       .  S
C1200      C1201   1.403       .  A
C1200      C1218   1.480       .  S
C1201      C1202   1.404       .  A
C1201      H1205   1.086       .  S
C1202      C1203   1.394       .  A
C1203      H1206   1.084       .  S
C1207      C1208   1.413       .  A
C1207      C1212   1.411       .  A
C1207      C1282   1.446       .  S
C1208      C1209   1.409       .  A
C1208      H1213   1.083       .  S
C1209      C1210   1.414       .  A
C1210      C1211   1.413       .  A
C1210      H1214   1.079       .  S
C1211      C1212   1.408       .  A
C1211      C1220   1.517       .  S
C1212      H1215   1.083       .  S
C1216      C1217   1.405       .  A
C1216      C1221   1.419       .  A
C1216      C1279   1.431       .  S
C1217      C1218   1.390       .  A
C1217      H1222   1.084       .  S
C1218      C1219   1.395       .  A
C1219      C1220   1.403       .  A
C1219      H1223   1.064       .  S
C1220      C1221   1.413       .  A
C1221      H1224   1.083       .  S
O1225      C1236   1.294       .  A
O1226      C1237   1.293       .  A
O1227      C1238   1.287       .  A
O1227     Zr1419   2.422       .  S
O1228      C1239   1.284       .  A
O1228     Zr1233   2.406   1_554  S
O1229      C1239   1.295       .  A
O1230      C1238   1.285       .  A
O1231      C1237   1.288       .  A
O1231     Zr1233   2.428   1_554  S
O1232      C1236   1.287       .  A
Zr1233     O1413   2.422       .  S
O1234     Zr1260   2.352       .  S
O1234     Zr1263   2.347       .  S
O1235     Zr1262   2.328       .  S
C1236      C1302   1.434       .  S
C1237      C1296   1.435       .  S
C1238      C1284   1.416       .  S
C1239      C1280   1.428       .  S
O1241     Zr1446   2.342       .  S
O1241     Zr1262   2.335       .  S
O1243     Zr1263   2.337       .  S
O1244      C1267   1.294       .  A
O1244     Zr1260   2.456       .  S
O1245      C1268   1.295       .  A
O1245     Zr1261   2.458       .  S
O1246      C1269   1.287       .  A
O1246     Zr1262   2.423       .  S
O1247      C1270   1.296       .  A
O1247     Zr1263   2.463       .  S
O1248      C1271   1.298       .  A
O1249      C1272   1.290       .  A
O1250      C1273   1.297       .  A
O1250     Zr1450   2.471       .  S
O1251      C1274   1.294       .  A
O1251     Zr1264   2.454       .  S
O1252      C1273   1.282       .  A
O1252     Zr1262   2.398       .  S
O1253      C1274   1.292       .  A
O1253     Zr1263   2.443       .  S
O1254      C1269   1.297       .  A
O1254     Zr1446   2.470       .  S
O1255      C1272   1.288       .  A
O1255     Zr1447   2.427       .  S
O1256      C1271   1.286       .  A
O1256     Zr1261   2.415       .  S
O1257      C1270   1.295       .  A
O1257     Zr1260   2.455       .  S
O1258      C1267   1.288       .  A
O1258     Zr1264   2.425       .  S
O1259      C1268   1.287       .  A
Zr1260     O1440   2.470   1_554  S
Zr1260     O1427   2.342   1_554  S
Zr1260     O1452   2.346   1_554  S
Zr1260     O1278   2.347       .  S
Zr1261     O1441   2.427   1_554  S
Zr1262     O1266   2.344       .  S
Zr1262     O1276   2.335       .  S
Zr1263     O1265   2.349       .  S
Zr1263     O1278   2.356       .  S
Zr1264     O1436   2.470   1_554  S
Zr1264     O1265   2.349       .  S
Zr1264     O1452   2.342   1_554  S
Zr1264     O1278   2.344       .  S
Zr1264     O1462   2.336   1_554  S
O1266     Zr1446   2.346       .  S
O1266     Zr1450   2.342       .  S
C1267      C1297   1.435       .  S
C1268      C1299   1.434       .  S
C1269      C1292   1.440       .  S
C1270      C1289   1.450       .  S
C1271      C1287   1.439       .  S
C1272      C1294   1.428       .  S
C1273      C1285   1.430       .  S
C1274      C1281   1.441       .  S
O1276     Zr1450   2.336       .  S
H1277      O1278   0.965       .  S
C1279      C1280   1.202       .  T
C1281      C1282   1.210       .  T
C1283      C1284   1.195       .  T
C1285      C1286   1.203       .  T
C1287      C1288   1.209       .  T
C1289      C1290   1.215       .  T
C1291      C1292   1.209       .  T
C1293      C1294   1.202       .  T
C1295      C1296   1.206       .  T
C1297      C1298   1.206       .  T
C1299      C1300   1.206   1_554  T
C1301      C1303   1.438       .  S
C1301      C1302   1.205       .  T
C1303      C1304   1.415       .  A
C1304      C1305   1.414       .  A
C1304      H1309   1.082       .  S
C1306      C1307   1.405       .  A
C1306      H1310   1.082       .  S
C1307      C1308   1.395       .  A
C1307      C1332   1.483       .  S
C1308      H1311   1.084       .  S
C1312      C1313   1.418       .  A
C1312      C1317   1.405       .  A
C1312      C1486   1.438       .  S
C1313      C1314   1.413       .  A
C1313      H1318   1.083       .  S
C1314      C1315   1.409       .  A
C1315      C1316   1.396       .  A
C1315      H1319   1.076       .  S
C1316      C1317   1.391       .  A
C1316      C1323   1.482       .  S
C1317      H1320   1.084       .  S
C1321      C1322   1.403       .  A
C1321      C1326   1.415       .  A
C1321      C1484   1.439       .  S
C1322      C1323   1.395       .  A
C1322      H1327   1.084       .  S
C1323      C1324   1.404       .  A
C1324      C1325   1.412       .  A
C1324      H1328   1.082       .  S
C1325      C1326   1.414       .  A
C1325      C1334   1.514       .  S
C1326      H1329   1.083       .  S
C1330      C1331   1.407       .  A
C1330      C1335   1.417       .  A
C1330      C1481   1.439       .  S
C1331      C1332   1.393       .  A
C1331      H1336   1.084       .  S
C1332      C1333   1.396       .  A
C1333      C1334   1.408       .  A
C1333      H1337   1.076       .  S
C1334      C1335   1.412       .  A
C1335      H1338   1.083       .  S
C1339      C1340   1.410       .  A
C1339      C1344   1.409       .  A
C1339      C1479   1.433       .  S
C1340      C1341   1.400       .  A
C1340      H1345   1.084       .  S
C1341      C1342   1.405       .  A
C1341      C1350   1.489       .  S
C1342      C1343   1.405       .  A
C1342      H1346   1.086       .  S
C1343      C1344   1.398       .  A
C1343      C1368   1.487       .  S
C1344      H1347   1.084       .  S
C1348      C1349   1.411       .  A
C1348      C1353   1.424       .  A
C1348      C1477   1.442       .  S
C1349      C1350   1.395       .  A
C1349      H1354   1.083       .  S
C1350      C1351   1.394       .  A
C1351      C1352   1.403       .  A
C1351      H1355   1.063       .  S
C1352      C1353   1.415       .  A
C1352      C1359   1.522       .  S
C1353      H1356   1.083       .  S
C1357      C1358   1.416       .  A
C1357      C1362   1.418       .  A
C1357      C1476   1.454       .  S
C1358      C1359   1.411       .  A
C1358      H1363   1.083       .  S
C1359      C1360   1.413       .  A
C1360      C1361   1.413       .  A
C1360      H1364   1.078       .  S
C1361      C1362   1.412       .  A
C1361      C1370   1.523       .  S
C1362      H1365   1.083       .  S
C1366      C1367   1.410       .  A
C1366      C1371   1.425       .  A
C1366      C1474   1.442       .  S
C1367      C1368   1.394       .  A
C1367      H1372   1.084       .  S
C1368      C1369   1.393       .  A
C1369      C1370   1.402       .  A
C1369      H1373   1.062       .  S
C1370      C1371   1.416       .  A
C1371      H1374   1.083       .  S
C1375      C1376   1.405       .  A
C1375      C1380   1.422       .  A
C1375      C1472   1.433       .  S
C1376      C1377   1.389       .  A
C1376      H1381   1.084       .  S
C1377      C1378   1.392       .  A
C1377      C1388   1.478       .  S
C1378      C1379   1.400       .  A
C1378      H1382   1.062       .  S
C1379      C1380   1.414       .  A
C1379      C1395   1.517       .  S
C1380      H1383   1.083       .  S
C1384      C1385   1.406       .  A
C1384      C1389   1.404       .  A
C1384      C1469   1.422       .  S
C1385      C1386   1.396       .  A
C1385      H1390   1.084       .  S
C1386      C1387   1.403       .  A
C1386      C1404   1.480       .  S
C1387      C1388   1.404       .  A
C1387      H1391   1.086       .  S
C1388      C1389   1.394       .  A
C1389      H1392   1.084       .  S
C1393      C1394   1.413       .  A
C1393      C1398   1.411       .  A
C1393      C1468   1.446       .  S
C1394      C1395   1.409       .  A
C1394      H1399   1.083       .  S
C1395      C1396   1.414       .  A
C1396      C1397   1.413       .  A
C1396      H1400   1.079       .  S
C1397      C1398   1.408       .  A
C1397      C1406   1.517       .  S
C1398      H1401   1.083       .  S
C1402      C1403   1.405       .  A
C1402      C1407   1.419       .  A
C1402      C1465   1.431       .  S
C1403      C1404   1.390       .  A
C1403      H1408   1.084       .  S
C1404      C1405   1.395       .  A
C1405      C1406   1.403       .  A
C1405      H1409   1.064       .  S
C1406      C1407   1.413       .  A
C1407      H1410   1.083       .  S
O1411      C1422   1.294       .  A
O1412      C1423   1.293       .  A
O1413      C1424   1.287       .  A
O1414      C1425   1.284       .  A
O1414     Zr1419   2.406       .  S
O1415      C1425   1.295       .  A
O1416      C1424   1.285       .  A
O1417      C1423   1.288       .  A
O1417     Zr1419   2.428       .  S
O1418      C1422   1.287       .  A
O1420     Zr1446   2.352       .  S
O1420     Zr1449   2.347       .  S
O1421     Zr1448   2.328       .  S
C1422      C1488   1.434       .  S
C1423      C1482   1.435       .  S
C1424      C1470   1.417       .  S
C1425      C1466   1.428       .  S
O1427     Zr1448   2.335       .  S
O1429     Zr1449   2.337       .  S
O1430      C1453   1.294       .  A
O1430     Zr1446   2.456       .  S
O1431      C1454   1.295       .  A
O1431     Zr1447   2.458       .  S
O1432      C1455   1.287       .  A
O1432     Zr1448   2.423       .  S
O1433      C1456   1.296       .  A
O1433     Zr1449   2.463       .  S
O1434      C1457   1.298       .  A
O1435      C1458   1.290       .  A
O1436      C1459   1.297       .  A
O1437      C1460   1.294       .  A
O1437     Zr1450   2.454       .  S
O1438      C1459   1.282       .  A
O1438     Zr1448   2.398       .  S
O1439      C1460   1.292       .  A
O1439     Zr1449   2.443       .  S
O1440      C1455   1.297       .  A
O1441      C1458   1.288       .  A
O1442      C1457   1.286       .  A
O1442     Zr1447   2.415       .  S
O1443      C1456   1.295       .  A
O1443     Zr1446   2.455       .  S
O1444      C1453   1.288       .  A
O1444     Zr1450   2.425       .  S
O1445      C1454   1.287       .  A
Zr1446     O1464   2.347       .  S
Zr1448     O1452   2.344       .  S
Zr1448     O1462   2.335       .  S
Zr1449     O1451   2.349       .  S
Zr1449     O1464   2.356       .  S
Zr1450     O1451   2.349       .  S
Zr1450     O1464   2.344       .  S
C1453      C1483   1.435       .  S
C1454      C1485   1.434       .  S
C1455      C1478   1.440       .  S
C1456      C1475   1.451       .  S
C1457      C1473   1.439       .  S
C1458      C1480   1.428       .  S
C1459      C1471   1.430       .  S
C1460      C1467   1.441       .  S
H1463      O1464   0.965       .  S
C1465      C1466   1.202       .  T
C1467      C1468   1.210       .  T
C1469      C1470   1.195       .  T
C1471      C1472   1.203       .  T
C1473      C1474   1.209       .  T
C1475      C1476   1.215       .  T
C1477      C1478   1.209       .  T
C1479      C1480   1.202       .  T
C1481      C1482   1.206       .  T
C1483      C1484   1.206       .  T
C1485      C1486   1.206       .  T
C1487      C1488   1.205       .  T
