geometry optimzed in LAMMPS
_audit_creation_date              2020-11-30 
_audit_creation_method            'lammps2cif' 
_symmetry_space_group_name_H-M    'P1' 
_symmetry_Int_Tables_number       1 
_symmetry_cell_setting            triclinic 
loop_ 
_symmetry_equiv_pos_as_xyz 
  x,y,z 
_cell_length_a                    35.07749545864678 
_cell_length_b                    35.0752757929448 
_cell_length_c                    35.073209517838876 
_cell_angle_alpha                 89.99291165713244 
_cell_angle_beta                  89.997917390891 
_cell_angle_gamma                 90.00589957122887 
loop_ 
_atom_site_label 
_atom_site_type_symbol 
_atom_site_fract_x 
_atom_site_fract_y 
_atom_site_fract_z 
_atom_site_charge 
C1          C  0.99912703  0.26357914  0.73713792     0.02730
C2          C  0.99910669  0.23625195  0.76436199     0.02730
C3          C  0.26190035  0.99960053  0.73692631     0.02730
C4          C  0.23464325  0.99956858  0.76420443     0.02730
C5          C  0.99814814  0.73641427  0.26424784     0.02730
C6          C  0.99817051  0.76372852  0.23703371     0.02730
C7          C  0.76269407  0.00049783  0.23758045     0.02730
C8          C  0.73536819  0.00044600  0.26480290     0.02730
C9          C  0.73571803  0.26434217  0.00084180     0.02730
C10         C  0.76296783  0.23705574  0.00081726     0.02730
C11         C  0.26118480  0.73524066  0.00053111     0.02730
C12         C  0.23392703  0.76253054  0.00051220     0.02730
C13         C  0.73412383  0.73689152  0.00126042     0.02730
C14         C  0.76137263  0.76419971  0.00123273     0.02730
C15         C  0.73442197  0.00011779  0.73786083     0.02730
C16         C  0.76172663  0.00007888  0.76507921     0.02730
C17         C  0.99786817  0.76375925  0.76402961     0.02730
C18         C  0.99788227  0.73645344  0.73680035     0.02730
Fe19       Fe  0.09018224  0.83811338  0.90826157     1.65780
Fe20       Fe  0.09030333  0.90733869  0.83919514     1.73250
Fe21       Fe  0.15965940  0.90688129  0.90806703     1.54410
O22         O  0.13853975  0.90416834  0.96259133    -0.79510
O23         O  0.14181073  0.91614737  0.81181520    -0.77810
O24         O  0.09404893  0.85884746  0.96280909    -0.82010
O25         O  0.14158024  0.81014947  0.91583564    -0.76870
O26         O  0.13917860  0.96154951  0.90441689    -0.78640
O27         O  0.08273886  0.85587882  0.81137710    -0.81390
C28         C  0.17554797  0.82113534  0.92177960     0.99380
C29         C  0.11471311  0.88313128  0.97968470     1.06820
O30         O  0.11367492  0.88381322  0.88487622    -1.10370
O31         O  0.03573595  0.90354586  0.85990693    -0.72800
O32         O  0.03579608  0.85949116  0.90562788    -0.76290
O33         O  0.18673231  0.85516491  0.91662126    -0.76980
C34         C  0.01878794  0.88316164  0.88437992     0.98280
O35         O  0.08142188  0.81095326  0.85665312    -0.74940
O36         O  0.09313516  0.96169530  0.86067070    -0.80130
C37         C  0.17600612  0.92084949  0.82266600     1.00900
C38         C  0.11463372  0.97860513  0.88420462     1.06820
O39         O  0.18730433  0.91439830  0.85644771    -0.75770
C40         C  0.07656084  0.82200127  0.82253339     1.05120
Fe41       Fe  0.83681034  0.90793873  0.90879727     1.65780
Fe42       Fe  0.90570931  0.90768890  0.83945433     1.73250
Fe43       Fe  0.90560132  0.83848314  0.90850457     1.54420
O44         O  0.90194525  0.85911598  0.96312412    -0.79510
O45         O  0.91316950  0.85615444  0.81165103    -0.77810
O46         O  0.85838255  0.90531998  0.96308939    -0.82010
O47         O  0.80943075  0.85649258  0.91779123    -0.76870
O48         O  0.96011179  0.85962077  0.90572094    -0.78640
O49         O  0.85407811  0.91639742  0.81236011    -0.81390
C50         C  0.82020816  0.82227819  0.92249352     0.99380
C51         C  0.88184928  0.88381929  0.98007539     1.06820
O52         O  0.88241242  0.88440633  0.88528882    -1.10370
O53         O  0.90315484  0.96219503  0.86068492    -0.72800
O54         O  0.85754495  0.96247676  0.90484206    -0.76290
O55         O  0.85396046  0.81089421  0.91605499    -0.76980
C56         C  0.88200155  0.97932483  0.88437270     0.98280
O57         O  0.80889875  0.91534560  0.85737479    -0.74940
O58         O  0.96027999  0.90378967  0.86006798    -0.80130
C59         C  0.91924134  0.82224716  0.82277765     1.00900
C60         C  0.97718161  0.88326267  0.88445260     1.06820
O61         O  0.91420544  0.81121930  0.85688005    -0.75770
C62         C  0.81999808  0.92136339  0.82345271     1.05120
Fe63       Fe  0.09086001  0.90737228  0.16207028     1.65780
Fe64       Fe  0.09045963  0.83832450  0.09284973     1.73250
Fe65       Fe  0.15982889  0.90723326  0.09278939     1.54410
O66         O  0.13895925  0.96178727  0.09610160    -0.79510
O67         O  0.14189383  0.81058777  0.08482482    -0.77810
O68         O  0.09409535  0.96185454  0.14106153    -0.82010
O69         O  0.14248243  0.91555654  0.18947404    -0.76870
O70         O  0.13878233  0.90407112  0.03827009    -0.78640
O71         O  0.08212151  0.81088987  0.14439349    -0.81390
C72         C  0.17647982  0.92104046  0.17833786     0.99380
C73         C  0.11497386  0.97880263  0.11700542     1.06820
O74         O  0.11401497  0.88401267  0.11619750    -1.10370
O75         O  0.03604866  0.85957912  0.09600932    -0.72800
O76         O  0.03626927  0.90413533  0.14125383    -0.76290
O77         O  0.18750418  0.91535686  0.14432503    -0.76980
C78         C  0.01917994  0.88353563  0.11705233     0.98280
O79         O  0.08284486  0.85583816  0.18961910    -0.74940
O80         O  0.09386901  0.85918782  0.03831433    -0.80130
C81         C  0.17591438  0.82156383  0.07916150     1.00900
C82         C  0.11473619  0.88320606  0.02130302     1.06820
O83         O  0.18713361  0.85555238  0.08459104    -0.75770
C84         C  0.07694010  0.82192408  0.17846435     1.05120
Fe85       Fe  0.90577892  0.83885714  0.09322867     1.65780
Fe86       Fe  0.90630328  0.90817543  0.16215486     1.73250
Fe87       Fe  0.83707813  0.90839252  0.09312118     1.54420
O88         O  0.85796529  0.90486124  0.03861902    -0.79510
O89         O  0.85484330  0.91610832  0.18986025    -0.77810
O90         O  0.90274584  0.85982910  0.03868999    -0.82010
O91         O  0.85405563  0.81168155  0.08502057    -0.76870
O92         O  0.85833959  0.96281159  0.09610105    -0.78640
O93         O  0.91468031  0.85664808  0.18961884    -0.81390
C94         C  0.82008843  0.82292191  0.07960761     0.99380
C95         C  0.88194202  0.88390388  0.02167446     1.06820
O96         O  0.88276307  0.88485412  0.11645892    -1.10370
O97         O  0.96069676  0.90500187  0.14085859    -0.72800
O98         O  0.96045629  0.85944484  0.09660433    -0.76290
O99         O  0.80919610  0.85698072  0.08519352    -0.76980
C100        C  0.97756424  0.88372958  0.11709842     0.98280
O101        O  0.91355650  0.81130530  0.14481374    -0.74940
O102        O  0.90288610  0.96273365  0.14133590    -0.80130
C103        C  0.82089133  0.92196484  0.17878145     1.00900
C104        C  0.88224449  0.97975484  0.11713561     1.06820
O105        O  0.80977938  0.91680752  0.14472560    -0.75770
C106        C  0.91963140  0.82251578  0.17868141     1.05120
Fe107      Fe  0.83741288  0.09264891  0.90861472     1.65780
Fe108      Fe  0.90671211  0.16160686  0.90841531     1.73250
Fe109      Fe  0.90641577  0.09236687  0.83936648     1.54410
O110        O  0.90312329  0.03787362  0.86039983    -0.79510
O111        O  0.91493397  0.18898238  0.85681970    -0.77810
O112        O  0.85818618  0.03802940  0.90527284    -0.82010
O113        O  0.80975439  0.08457676  0.85712003    -0.76870
O114        O  0.96095680  0.09555542  0.86027845    -0.78640
O115        O  0.85526947  0.18932262  0.91647671    -0.81390
C116        C  0.82077847  0.07881933  0.82312789     0.99380
C117        C  0.88217545  0.02095342  0.88441015     1.06820
O118        O  0.88321677  0.11583438  0.88516898    -1.10370
O119        O  0.90342927  0.14079152  0.96298445    -0.72800
O120        O  0.85852795  0.09588486  0.96310159    -0.76290
O121        O  0.85478199  0.08422986  0.81195839    -0.76980
C122        C  0.88258755  0.11677639  0.98003124     0.98280
O123        O  0.81009522  0.14431215  0.91680491    -0.74940
O124        O  0.96112029  0.14042451  0.90521699    -0.80130
C125        C  0.92032986  0.17785299  0.82281256     1.00900
C126        C  0.97800731  0.11632841  0.88435233     1.06820
O127        O  0.91459752  0.14387217  0.81175103    -0.75770
C128        C  0.82126782  0.17831815  0.92217711     1.05120
Fe129      Fe  0.90668838  0.09277939  0.16231620     1.65780
Fe130      Fe  0.90692435  0.16177219  0.09301911     1.73250
Fe131      Fe  0.83748754  0.09295888  0.09329650     1.54410
O132        O  0.85864147  0.03846033  0.09597406    -0.79510
O133        O  0.85547454  0.18921811  0.08426388    -0.77810
O134        O  0.90280899  0.03822955  0.14161155    -0.82010
O135        O  0.85518967  0.08527855  0.19014982    -0.76870
O136        O  0.85805220  0.09666743  0.03865757    -0.78640
O137        O  0.91456427  0.18957452  0.14448504    -0.81390
C138        C  0.82128758  0.07920705  0.17902794     0.99380
C139        C  0.88230963  0.02136408  0.11718163     1.06820
O140        O  0.88340427  0.11613857  0.11650839    -1.10370
O141        O  0.96140704  0.14089846  0.09682400    -0.72800
O142        O  0.96112466  0.09534047  0.14105705    -0.76290
O143        O  0.81025689  0.08427546  0.14493311    -0.76980
C144        C  0.97823473  0.11645157  0.11732467     0.98280
O145        O  0.91543661  0.14438676  0.18949664    -0.74940
O146        O  0.90410578  0.14038637  0.03861782    -0.80130
C147        C  0.82127699  0.17839859  0.07950524     1.00900
C148        C  0.88263403  0.11687314  0.02165118     1.06820
O149        O  0.80992367  0.14460981  0.08583310    -0.75770
C150        C  0.92052189  0.17846170  0.17841524     1.05120
Fe151      Fe  0.15999908  0.09151484  0.90853586     1.65780
Fe152      Fe  0.09092918  0.09188346  0.83934884     1.73250
Fe153      Fe  0.09128530  0.16103769  0.90844641     1.54410
O154        O  0.09424741  0.14002119  0.96298246    -0.79510
O155        O  0.08269531  0.14346104  0.81193469    -0.77810
O156        O  0.13906920  0.09503475  0.96305468    -0.82010
O157        O  0.18785517  0.14289255  0.91656835    -0.76870
O158        O  0.03665893  0.14037561  0.90499775    -0.78640
O159        O  0.14243895  0.08393955  0.81175719    -0.81390
C160        C  0.17695824  0.17693641  0.92221154     0.99380
C161        C  0.11507872  0.11598319  0.98000931     1.06820
O162        O  0.11436415  0.11510141  0.88515699    -1.10370
O163        O  0.09417766  0.03729750  0.86011099    -0.72800
O164        O  0.13870431  0.03710278  0.90537170    -0.76290
O165        O  0.14300498  0.18821387  0.91675371    -0.76980
C166        C  0.11477801  0.02021771  0.88430208     0.98280
O167        O  0.18740332  0.08317948  0.85698053    -0.74940
O168        O  0.03650656  0.09506104  0.86049643    -0.80130
C169        C  0.07758203  0.17754551  0.82294649     1.00900
C170        C  0.01960377  0.11618460  0.88435857     1.06820
O171        O  0.08348369  0.18867172  0.85687875    -0.75770
C172        C  0.17636545  0.07807582  0.82289621     1.05120
Fe173      Fe  0.16022350  0.09166390  0.09309790     1.65780
Fe174      Fe  0.09151328  0.16117376  0.09315047     1.73250
Fe175      Fe  0.09112704  0.09202582  0.16224852     1.54420
O176        O  0.09496773  0.03737673  0.14172777    -0.79510
O177        O  0.08424293  0.18905291  0.14467978    -0.77810
O178        O  0.13861884  0.03737921  0.09562162    -0.82010
O179        O  0.18734348  0.08272000  0.14467566    -0.76870
O180        O  0.03677559  0.09468575  0.14075770    -0.78640
O181        O  0.14323740  0.18808078  0.08434389    -0.81390
C182        C  0.17642141  0.07818653  0.17887203     0.99380
C183        C  0.11510573  0.02040441  0.11707465     1.06820
O184        O  0.11458126  0.11524982  0.11646229    -1.10370
O185        O  0.09398236  0.13980506  0.03869073    -0.72800
O186        O  0.13960938  0.09565013  0.03853049    -0.76290
O187        O  0.14262355  0.08465236  0.19010688    -0.76980
C188        C  0.11516207  0.11609001  0.02162899     0.98280
O189        O  0.18830642  0.14299860  0.08573058    -0.74940
O190        O  0.03684330  0.14083046  0.09710375    -0.80130
C191        C  0.07769621  0.17785197  0.17847980     1.00900
C192        C  0.01982871  0.11625433  0.11731670     1.06820
O193        O  0.08224856  0.14365440  0.18941062    -0.75770
C194        C  0.17730915  0.17691155  0.07952684     1.05120
C195        C  0.49930338  0.23627637  0.26482720     0.02730
C196        C  0.49927373  0.26352949  0.23754671     0.02730
C197        C  0.23555854  0.26398169  0.50067543     0.02730
C198        C  0.26286924  0.23674429  0.50070103     0.02730
C199        C  0.23477024  0.49970086  0.26415492     0.02730
C200        C  0.26203212  0.49962380  0.23689505     0.02730
C201        C  0.23596850  0.23504681  0.00083094     0.02730
C202        C  0.26321017  0.26233277  0.00082561     0.02730
C203        C  0.23504895  0.99963025  0.23717835     0.02730
C204        C  0.26238316  0.99962084  0.26440420     0.02730
C205        C  0.49790081  0.73627106  0.76462459     0.02730
C206        C  0.49788275  0.76350904  0.73731652     0.02730
C207        C  0.23475299  0.73639362  0.50053843     0.02730
C208        C  0.26204011  0.76364010  0.50060098     0.02730
C209        C  0.49812588  0.73612297  0.23734805     0.02730
C210        C  0.49815669  0.76342404  0.26460702     0.02730
Fe211      Fe  0.40642713  0.83863483  0.40861200     1.65780
Fe212      Fe  0.33727192  0.90770006  0.40851051     1.73250
Fe213      Fe  0.40644555  0.90771171  0.33943502     1.54420
O214        O  0.46094136  0.90460363  0.36040826    -0.79510
O215        O  0.30982853  0.91582584  0.35695212    -0.77810
O216        O  0.46095766  0.85955603  0.40516155    -0.82010
O217        O  0.41429085  0.81103597  0.35709274    -0.76870
O218        O  0.40318940  0.96220066  0.36039488    -0.78640
O219        O  0.30971343  0.85615941  0.41651250    -0.81390
C220        C  0.41984640  0.82210338  0.32308683     0.99380
C221        C  0.47792792  0.88370045  0.38439608     1.06820
O222        O  0.38309190  0.88439105  0.38523323    -1.10370
O223        O  0.35816150  0.90437943  0.46303120    -0.72800
O224        O  0.40333703  0.85974764  0.46306960    -0.76290
O225        O  0.41455904  0.85614387  0.31200579    -0.76980
C226        C  0.38232234  0.88366825  0.48002580     0.98280
O227        O  0.35488374  0.81116744  0.41694457    -0.74940
O228        O  0.35831375  0.96220114  0.40532971    -0.80130
C229        C  0.32092005  0.92121454  0.32293318     1.00900
C230        C  0.38239695  0.97917109  0.38449511     1.06820
O231        O  0.35492900  0.91571278  0.31188143    -0.75770
C232        C  0.32082797  0.82219874  0.42222327     1.05120
Fe233      Fe  0.33740904  0.09232505  0.40850909     1.65780
Fe234      Fe  0.40675303  0.16124749  0.40869888     1.73250
Fe235      Fe  0.40670973  0.09215101  0.33953370     1.54420
O236        O  0.40378632  0.03774663  0.36085256    -0.79510
O237        O  0.41544960  0.18855697  0.35714592    -0.77810
O238        O  0.35812820  0.03774724  0.40501560    -0.82010
O239        O  0.30982173  0.08448304  0.35689543    -0.76870
O240        O  0.46128861  0.09583250  0.36030401    -0.78640
O241        O  0.35527781  0.18904387  0.41636099    -0.81390
C242        C  0.32105339  0.07833488  0.32303337     0.99380
C243        C  0.38250455  0.02076998  0.38454291     1.06820
O244        O  0.38332683  0.11553749  0.38528012    -1.10370
O245        O  0.40299386  0.14046750  0.46323898    -0.72800
O246        O  0.35840505  0.09525599  0.46307822    -0.76290
O247        O  0.35517365  0.08344644  0.31209158    -0.76980
C248        C  0.38225356  0.11627384  0.48015203     0.98280
O249        O  0.31015022  0.14398247  0.41685947    -0.74940
O250        O  0.46118178  0.13998333  0.40593203    -0.80130
C251        C  0.42052460  0.17756898  0.32304081     1.00900
C252        C  0.47822278  0.11630844  0.38470765     1.06820
O253        O  0.41443064  0.14369243  0.31182419    -0.75770
C254        C  0.32129071  0.17801310  0.42213117     1.05120
Fe255      Fe  0.66007251  0.90771657  0.40869698     1.65780
Fe256      Fe  0.59093170  0.83859077  0.40861005     1.73250
Fe257      Fe  0.59106520  0.90769124  0.33942405     1.54410
O258        O  0.59484474  0.96227278  0.36016402    -0.79510
O259        O  0.58304885  0.81089806  0.35704672    -0.77810
O260        O  0.63875903  0.96211157  0.40604499    -0.82010
O261        O  0.68740030  0.91660355  0.35714701    -0.76870
O262        O  0.53657731  0.90488021  0.36064129    -0.78640
O263        O  0.64249707  0.81126290  0.41710245    -0.81390
C264        C  0.67649175  0.92160646  0.32300091     0.99380
C265        C  0.61520763  0.97917133  0.38469419     1.06820
O266        O  0.61432377  0.88436394  0.38527029    -1.10370
O267        O  0.59381568  0.85970488  0.46314577    -0.72800
O268        O  0.63940931  0.90387964  0.46331091    -0.76290
O269        O  0.64266197  0.91534181  0.31172567    -0.76980
C270        C  0.61501515  0.88338171  0.48023152     0.98280
O271        O  0.68778380  0.85618000  0.41618005    -0.74940
O272        O  0.53644156  0.85943165  0.40501867    -0.80130
C273        C  0.57702833  0.82204390  0.32312716     1.00900
C274        C  0.51953162  0.88374294  0.38442187     1.06820
O275        O  0.58233307  0.85610446  0.31207355    -0.75770
C276        C  0.67658983  0.82228392  0.42219514     1.05120
Fe277      Fe  0.66034611  0.09213909  0.40908209     1.65780
Fe278      Fe  0.59142736  0.09240753  0.33975668     1.73250
Fe279      Fe  0.59130658  0.16134018  0.40904476     1.54420
O280        O  0.59440763  0.14025627  0.46349505    -0.79510
O281        O  0.58337557  0.14401122  0.31237902    -0.77810
O282        O  0.63931083  0.09536723  0.46354426    -0.82010
O283        O  0.68792997  0.14363091  0.41723768    -0.76870
O284        O  0.53678686  0.14037062  0.40565777    -0.78640
O285        O  0.64303018  0.08448146  0.31233802    -0.81390
C286        C  0.67688845  0.17764725  0.42275395     0.99380
C287        C  0.61522905  0.11619739  0.48048632     1.06820
O288        O  0.61465119  0.11558591  0.38567491    -1.10370
O289        O  0.59465748  0.03782430  0.36054498    -0.72800
O290        O  0.63922474  0.03768735  0.40578034    -0.76290
O291        O  0.64288744  0.18876978  0.41728615    -0.76980
C292        C  0.61529415  0.02077711  0.38473475     0.98280
O293        O  0.68794011  0.08404428  0.35759964    -0.74940
O294        O  0.53686693  0.09556989  0.36064855    -0.80130
C295        C  0.57786644  0.17798849  0.32352115     1.00900
C296        C  0.51984141  0.11635142  0.38473449     1.06820
O297        O  0.58332031  0.18899700  0.35755781    -0.75770
C298        C  0.67697399  0.07882432  0.32351562     1.05120
Fe299      Fe  0.65980113  0.90756311  0.59357373     1.65780
Fe300      Fe  0.59043890  0.90767924  0.66248326     1.73250
Fe301      Fe  0.59059814  0.83850369  0.59337493     1.54410
O302        O  0.59378884  0.85957167  0.53885320    -0.79510
O303        O  0.58195868  0.85613704  0.68992312    -0.77810
O304        O  0.63913143  0.90403574  0.53891477    -0.82010
O305        O  0.68738968  0.85599287  0.58579933    -0.76870
O306        O  0.53607199  0.85937026  0.59668691    -0.78640
O307        O  0.64188221  0.91563905  0.69027363    -0.81390
C308        C  0.67622867  0.82207255  0.57989216     0.99380
C309        C  0.61492852  0.88338652  0.52187872     1.06820
O310        O  0.61390675  0.88428773  0.61677519    -1.10370
O311        O  0.59401682  0.96219652  0.64157989    -0.72800
O312        O  0.63877334  0.96207880  0.59651898    -0.76290
O313        O  0.64215711  0.81104493  0.58511813    -0.76980
C314        C  0.61485750  0.97912474  0.61747499     0.98280
O315        O  0.68704662  0.91598486  0.64525428    -0.74940
O316        O  0.53602149  0.90462032  0.64123825    -0.80130
C317        C  0.57664128  0.82208564  0.67887524     1.00900
C318        C  0.51907092  0.88356766  0.61734102     1.06820
O319        O  0.58252002  0.81093272  0.64494135    -0.75770
C320        C  0.67587284  0.92140672  0.67925480     1.05120
Fe321      Fe  0.59088130  0.09224086  0.66251542     1.65780
Fe322      Fe  0.66020031  0.09219293  0.59358806     1.73250
Fe323      Fe  0.59116269  0.16138889  0.59342165     1.54420
O324        O  0.53654780  0.14064381  0.59681328    -0.79510
O325        O  0.68786469  0.14368784  0.58554213    -0.77810
O326        O  0.53645353  0.09539354  0.64135820    -0.82010
O327        O  0.58268352  0.14378500  0.68991918    -0.76870
O328        O  0.59422581  0.14019527  0.53900851    -0.78640
O329        O  0.68752558  0.08408896  0.64520262    -0.81390
C330        C  0.57755441  0.17786280  0.67889445     0.99380
C331        C  0.51951881  0.11642156  0.61743452     1.06820
O332        O  0.61437525  0.11556801  0.61679948    -1.10370
O333        O  0.63912153  0.03769596  0.59674584    -0.72800
O334        O  0.59419223  0.03772545  0.64161333    -0.76290
O335        O  0.58334490  0.18900884  0.64494964    -0.76980
C336        C  0.61500672  0.02073465  0.61754503     0.98280
O337        O  0.64232128  0.08425336  0.69018504    -0.74940
O338        O  0.63934801  0.09549932  0.53906197    -0.80130
C339        C  0.67680677  0.17765696  0.57976143     1.00900
C340        C  0.61519034  0.11621644  0.52207051     1.06820
O341        O  0.64277357  0.18874902  0.58506341    -0.76130
C342        C  0.67634378  0.07871434  0.67919475     1.05120
Fe343      Fe  0.40646433  0.16134957  0.59331828     1.65780
Fe344      Fe  0.33713816  0.09239466  0.59325223     1.73250
Fe345      Fe  0.40633879  0.09207975  0.66231780     1.54420
O346        O  0.46092586  0.09580844  0.64163167    -0.79510
O347        O  0.30939897  0.08478461  0.64480185    -0.77810
O348        O  0.46090417  0.14010101  0.59612665    -0.82010
O349        O  0.41512883  0.18855438  0.64495212    -0.76870
O350        O  0.40347455  0.03769312  0.64090813    -0.78640
O351        O  0.30998323  0.14405218  0.58462230    -0.81390
C352        C  0.42019981  0.17746928  0.67903470     0.99380
C353        C  0.47790500  0.11637458  0.61733027     1.06820
O354        O  0.38301653  0.11557452  0.61659794    -1.10370
O355        O  0.35838863  0.09515821  0.53878590    -0.72800
O356        O  0.40273022  0.14062839  0.53873448    -0.76290
O357        O  0.41405509  0.14356447  0.69015956    -0.76980
C358        C  0.38217927  0.11629535  0.52177535     0.98280
O359        O  0.35500941  0.18919249  0.58564507    -0.74940
O360        O  0.35766602  0.03775495  0.59692638    -0.80130
C361        C  0.32061022  0.07844708  0.67863674     1.00900
C362        C  0.38210277  0.02073869  0.61729196     1.06820
O363        O  0.35474969  0.08333732  0.68961100    -0.75770
C364        C  0.32109576  0.17811759  0.57954865     1.05120
Fe365      Fe  0.40595086  0.90756602  0.66222619     1.65780
Fe366      Fe  0.33697336  0.90766397  0.59296714     1.73250
Fe367      Fe  0.40600413  0.83845011  0.59311815     1.54420
O368        O  0.46053028  0.85936369  0.59653710    -0.79510
O369        O  0.30944862  0.85615108  0.58467126    -0.77810
O370        O  0.46046111  0.90440081  0.64129997    -0.82010
O371        O  0.41402926  0.85600385  0.68971571    -0.76870
O372        O  0.40294987  0.85949931  0.53862918    -0.78640
O373        O  0.30934267  0.91562093  0.64444659    -0.81390
C374        C  0.41942126  0.82197195  0.67866520     0.99380
C375        C  0.47747185  0.88350477  0.61731828     1.06820
O376        O  0.38268037  0.88426709  0.61639336    -1.10370
O377        O  0.35792891  0.96219271  0.59638396    -0.72800
O378        O  0.40278895  0.96209310  0.64131334    -0.76290
O379        O  0.41388765  0.81088101  0.64466731    -0.76980
C380        C  0.38199184  0.97912634  0.61726082     0.98280
O381        O  0.35435359  0.91559108  0.68962640    -0.74940
O382        O  0.35815145  0.90451170  0.53854388    -0.80130
C383        C  0.32048890  0.82212357  0.57923322     1.00900
C384        C  0.38221484  0.88363327  0.52162119     1.06820
O385        O  0.35445623  0.81099568  0.58485285    -0.75770
C386        C  0.32036699  0.92106828  0.67847952     1.05120
C387        C  0.73487889  0.76385994  0.50105637     0.02730
C388        C  0.76218079  0.73663218  0.50101562     0.02730
C389        C  0.23479317  0.49955084  0.73719583     0.02730
C390        C  0.26209976  0.49953097  0.76443090     0.02730
C391        C  0.49897573  0.23606641  0.73750345     0.02730
C392        C  0.49892534  0.26333285  0.76476475     0.02730
Fe393      Fe  0.59022985  0.66136591  0.09323706     1.65780
Fe394      Fe  0.59031639  0.59216557  0.16231807     1.73250
Fe395      Fe  0.65959515  0.59249625  0.09335197     1.54410
O396        O  0.63873653  0.59581529  0.03876587    -0.79510
O397        O  0.64181946  0.58406768  0.18995008    -0.77810
O398        O  0.59349595  0.64037403  0.03874965    -0.82010
O399        O  0.64168028  0.68902744  0.08511648    -0.76870
O400        O  0.63875423  0.53790894  0.09649041    -0.78640
O401        O  0.58210018  0.64366439  0.18985302    -0.81390
C402        C  0.67575761  0.67810693  0.07977191     0.99380
C403        C  0.61453080  0.61648821  0.02177289     1.06820
O404        O  0.61367434  0.61563309  0.11659798    -1.10370
O405        O  0.53584112  0.59532057  0.14123348    -0.72800
O406        O  0.53578330  0.64030274  0.09641547    -0.76290
O407        O  0.68698122  0.64416309  0.08540758    -0.76980
C408        C  0.51884518  0.61615837  0.11717833     0.98280
O409        O  0.58209643  0.68881286  0.14480013    -0.74940
O410        O  0.59371825  0.53771463  0.14127456    -0.80130
C411        C  0.67586628  0.57865723  0.17893794     1.00900
C412        C  0.61470892  0.52082830  0.11728470     1.06820
O413        O  0.68701680  0.58433077  0.14497181    -0.75770
C414        C  0.57661317  0.67768400  0.17879935     1.05120
Fe415      Fe  0.59024234  0.66144504  0.90874999     1.65780
Fe416      Fe  0.65970932  0.59266226  0.90857961     1.73250
Fe417      Fe  0.59056931  0.59245550  0.83946938     1.54420
O418        O  0.53605951  0.59520874  0.86055407    -0.79510
O419        O  0.68710151  0.58422468  0.85697737    -0.77810
O420        O  0.53577544  0.64045909  0.90508809    -0.82010
O421        O  0.58240497  0.68916867  0.85724299    -0.76870
O422        O  0.59424325  0.53792742  0.86028557    -0.78640
O423        O  0.68717721  0.64433482  0.91634481    -0.81390
C424        C  0.57665726  0.67806741  0.82326997     0.99380
C425        C  0.51893944  0.61617077  0.88441026     1.06820
O426        O  0.61380744  0.61582580  0.88529909    -1.10370
O427        O  0.63898112  0.59615261  0.96317660    -0.72800
O428        O  0.59319244  0.64014285  0.96316769    -0.76290
O429        O  0.58203030  0.64404448  0.81216838    -0.76980
C430        C  0.61451769  0.61651343  0.98015651     0.98280
O431        O  0.64168554  0.68901039  0.91740708    -0.74940
O432        O  0.63867578  0.53812582  0.90566561    -0.80130
C433        C  0.67607288  0.57892682  0.82291359     1.00900
C434        C  0.61488191  0.52104511  0.88458675     1.06820
O435        O  0.64212735  0.58474997  0.81178870    -0.75770
C436        C  0.67583596  0.67816148  0.92247787     1.05120
Fe437      Fe  0.33693474  0.59145670  0.09284030     1.65780
Fe438      Fe  0.40588448  0.59180843  0.16215281     1.73250
Fe439      Fe  0.40566564  0.66099257  0.09307787     1.54420
O440        O  0.40229502  0.64018535  0.03848971    -0.79510
O441        O  0.41397229  0.64338013  0.18972184    -0.77810
O442        O  0.35824234  0.59443620  0.03846645    -0.82010
O443        O  0.30933939  0.64287581  0.08420361    -0.76870
O444        O  0.46021752  0.64004161  0.09620560    -0.78640
O445        O  0.35429500  0.58368373  0.18950989    -0.81390
C446        C  0.32015020  0.67703837  0.07913292     0.99380
C447        C  0.38190464  0.61574227  0.02150134     1.06820
O448        O  0.38253259  0.61504806  0.11631635    -1.10370
O449        O  0.40283119  0.53721265  0.14129426    -0.72800
O450        O  0.35788536  0.53695549  0.09647328    -0.76290
O451        O  0.35398309  0.68839747  0.08518697    -0.76980
C452        C  0.38199891  0.52008913  0.11733002     0.98280
O453        O  0.30926415  0.58366434  0.14432232    -0.74940
O454        O  0.46033916  0.59516570  0.14117740    -0.80130
C455        C  0.41954332  0.67739146  0.17866006     1.00900
C456        C  0.47725254  0.61604508  0.11710212     1.06820
O457        O  0.41394705  0.68847918  0.14466162    -0.75770
C458        C  0.32030824  0.57820992  0.17835401     1.05120
Fe459      Fe  0.33686681  0.59140563  0.90848477     1.65780
Fe460      Fe  0.40559988  0.66090207  0.90835854     1.73250
Fe461      Fe  0.40604049  0.59163955  0.83939161     1.54420
O462        O  0.40253773  0.53706688  0.86015417    -0.79510
O463        O  0.41319811  0.68855230  0.85678771    -0.77810
O464        O  0.35815057  0.53701583  0.90554397    -0.82010
O465        O  0.30956998  0.58299482  0.85691872    -0.76870
O466        O  0.46043354  0.59464341  0.86069951    -0.78640
O467        O  0.35389688  0.68802159  0.91676916    -0.81390
C468        C  0.32061566  0.57798998  0.82282709     0.99380
C469        C  0.38200647  0.52006739  0.88446234     1.06820
O470        O  0.38254500  0.61493846  0.88511931    -1.10370
O471        O  0.40275701  0.63978611  0.96286897    -0.72800
O472        O  0.35775621  0.59496696  0.96297627    -0.76290
O473        O  0.35454679  0.58388346  0.81169676    -0.76980
C474        C  0.38188785  0.61577011  0.97989735     0.98280
O475        O  0.30897714  0.64277999  0.91633840    -0.74940
O476        O  0.46026163  0.64037110  0.90477354    -0.80130
C477        C  0.41938564  0.67735031  0.82293429     1.00900
C478        C  0.47733174  0.61599323  0.88436618     1.06820
O479        O  0.41454924  0.64319726  0.81200007    -0.75770
C480        C  0.31990439  0.67679950  0.92205126     1.05120
Fe481      Fe  0.66008651  0.40812327  0.90870217     1.65780
Fe482      Fe  0.59123694  0.33871832  0.90869870     1.73250
Fe483      Fe  0.59096984  0.40782287  0.83954331     1.54410
O484        O  0.59449046  0.46241887  0.86026725    -0.79510
O485        O  0.58352186  0.31100123  0.85716461    -0.77810
O486        O  0.63871004  0.46249619  0.90584362    -0.82010
O487        O  0.68737396  0.41674854  0.85712852    -0.76870
O488        O  0.53650871  0.40477743  0.86073828    -0.78640
O489        O  0.64292325  0.31156725  0.91715345    -0.81390
C490        C  0.67636636  0.42171109  0.82301547     0.99380
C491        C  0.61495634  0.47943622  0.88462813     1.06820
O492        O  0.61438763  0.38459822  0.88535663    -1.10370
O493        O  0.59411147  0.35986948  0.96318972    -0.72800
O494        O  0.63935631  0.40442730  0.96326755    -0.76290
O495        O  0.64248203  0.41562008  0.81185168    -0.76980
C496        C  0.61515549  0.38372517  0.98021685     0.98280
O497        O  0.68796502  0.35670738  0.91641295    -0.74940
O498        O  0.53661208  0.35932891  0.90511280    -0.80130
C499        C  0.57747994  0.32212885  0.82325219     1.00900
C500        C  0.51956908  0.38356025  0.88451014     1.06820
O501        O  0.58252689  0.35622367  0.81221703    -0.75770
C502        C  0.67696031  0.32273255  0.92230016     1.05120
Fe503      Fe  0.66020551  0.40789834  0.09331831     1.65780
Fe504      Fe  0.59103358  0.40767535  0.16240610     1.73250
Fe505      Fe  0.59133841  0.33851113  0.09333237     1.54420
O506        O  0.59444225  0.35953870  0.03881790    -0.79510
O507        O  0.58309770  0.35612635  0.18994943    -0.77810
O508        O  0.63922397  0.40457286  0.03880669    -0.82010
O509        O  0.68791926  0.35647879  0.08518947    -0.76870
O510        O  0.53673231  0.35924018  0.09660960    -0.78640
O511        O  0.64251857  0.41595835  0.18993176    -0.81390
C512        C  0.67696047  0.32244673  0.07960981     0.99380
C513        C  0.61520639  0.38366952  0.02183255     1.06820
O514        O  0.61448793  0.38440065  0.11664579    -1.10370
O515        O  0.59407886  0.46217693  0.14137391    -0.72800
O516        O  0.63905505  0.46233243  0.09654771    -0.76290
O517        O  0.64300279  0.31121836  0.08514262    -0.76980
C518        C  0.61489151  0.47922458  0.11732958     0.98280
O519        O  0.68766063  0.41606034  0.14488894    -0.74940
O520        O  0.53655657  0.40422152  0.14142533    -0.80130
C521        C  0.57776169  0.32208199  0.17890597     1.00900
C522        C  0.51965911  0.38326737  0.11741153     1.06820
O523        O  0.58338752  0.31097300  0.14491999    -0.75770
C524        C  0.67652407  0.42151697  0.17888826     1.05120
Fe525      Fe  0.40626737  0.40707612  0.83941040     1.65780
Fe526      Fe  0.40670367  0.33809781  0.90871220     1.73250
Fe527      Fe  0.33723997  0.40688211  0.90863223     1.54420
O528        O  0.35811535  0.46143887  0.90539249    -0.79510
O529        O  0.35530424  0.31032196  0.91672547    -0.77810
O530        O  0.40302136  0.46154013  0.86045941    -0.82010
O531        O  0.35466600  0.41527923  0.81197373    -0.76870
O532        O  0.35817232  0.40365357  0.96320203    -0.78640
O533        O  0.41505530  0.31064377  0.85720825    -0.81390
C534        C  0.32067186  0.42078865  0.82309327     0.99380
C535        C  0.38212416  0.47846735  0.88451266     1.06820
O536        O  0.38310729  0.38372436  0.88529119    -1.10370
O537        O  0.46107880  0.35941970  0.90556240    -0.72800
O538        O  0.46087690  0.40385799  0.86019927    -0.76290
O539        O  0.30962381  0.41507634  0.85708943    -0.76980
C540        C  0.47795443  0.38333983  0.88447567     0.98280
O541        O  0.41424264  0.35552096  0.81189718    -0.74940
O542        O  0.40328430  0.35898826  0.96323063    -0.80130
C543        C  0.32123738  0.32123038  0.92219405     1.00900
C544        C  0.38230167  0.38291375  0.98020972     1.06820
O545        O  0.30996283  0.35517861  0.91666315    -0.75770
C546        C  0.42016719  0.32162584  0.82311058     1.05120
Fe547      Fe  0.40675575  0.33795112  0.09334372     1.65780
Fe548      Fe  0.40644345  0.40712308  0.16245275     1.73250
Fe549      Fe  0.33726659  0.40671108  0.09338686     1.54420
O550        O  0.35837411  0.40383571  0.03887263    -0.79510
O551        O  0.35486290  0.41564379  0.18981300    -0.77810
O552        O  0.40306990  0.35873278  0.03877835    -0.82010
O553        O  0.35537591  0.31002109  0.08556440    -0.76870
O554        O  0.35782883  0.46138283  0.09692390    -0.78640
O555        O  0.41427840  0.35562109  0.19018378    -0.81390
C556        C  0.32139157  0.32098292  0.07968420     0.99380
C557        C  0.38230394  0.38288714  0.02183554     1.06820
O558        O  0.38319221  0.38362855  0.11669365    -1.10370
O559        O  0.46102746  0.40361965  0.14172299    -0.72800
O560        O  0.46112576  0.35933245  0.09622593    -0.76290
O561        O  0.31015958  0.35497954  0.08496112    -0.76980
C562        C  0.47805376  0.38313418  0.11739506     0.98280
O563        O  0.41537788  0.31068070  0.14493775    -0.74940
O564        O  0.40340839  0.46155077  0.14115148    -0.80130
C565        C  0.32075777  0.42066011  0.17880241     1.00900
C566        C  0.38213849  0.47846010  0.11741037     1.06820
O567        O  0.30958133  0.41444003  0.14493981    -0.75770
C568        C  0.42041030  0.32173474  0.17902952     1.05120
C569        C  0.73474576  0.50029129  0.76435600     0.02730
C570        C  0.76206985  0.50025830  0.73712045     0.02730
C571        C  0.99917984  0.23686975  0.23683858     0.02730
C572        C  0.99920497  0.26413124  0.26412306     0.02730
C573        C  0.73560281  0.23607891  0.50119242     0.02730
C574        C  0.76294211  0.26328384  0.50118337     0.02730
C575        C  0.73463271  0.50017313  0.23756579     0.02730
C576        C  0.76187110  0.50026005  0.26486539     0.02730
Fe577      Fe  0.09073862  0.66158877  0.40820146     1.65780
Fe578      Fe  0.16002041  0.59262146  0.40803601     1.73250
Fe579      Fe  0.09067795  0.59241033  0.33911545     1.54420
O580        O  0.03617584  0.59573438  0.36015655    -0.79510
O581        O  0.18737642  0.58430704  0.35640599    -0.77810
O582        O  0.03622901  0.64066661  0.40501154    -0.82010
O583        O  0.08258489  0.68907434  0.35662114    -0.76870
O584        O  0.09400196  0.53795339  0.36025086    -0.78640
O585        O  0.18751801  0.64421472  0.41586794    -0.81390
C586        C  0.07696763  0.67794401  0.32263715     0.99380
C587        C  0.01921752  0.61662894  0.38418893     1.06820
O588        O  0.11410814  0.61583645  0.38481486    -1.10370
O589        O  0.13926375  0.59603583  0.46266179    -0.72800
O590        O  0.09397636  0.64054174  0.46270352    -0.76290
O591        O  0.08251237  0.64393725  0.31155285    -0.76980
C592        C  0.11504016  0.61666862  0.47967556     0.98280
O593        O  0.14226004  0.68912884  0.41636906    -0.74940
O594        O  0.13905821  0.53809613  0.40501906    -0.80130
C595        C  0.17618651  0.57860199  0.32246196     1.00900
C596        C  0.11496332  0.52104729  0.38426852     1.06820
O597        O  0.14215746  0.58414536  0.31145633    -0.75770
C598        C  0.17632658  0.67813621  0.42166396     1.05120
Fe599      Fe  0.83691201  0.59258308  0.40839167     1.65780
Fe600      Fe  0.90614090  0.66160770  0.40842181     1.73250
Fe601      Fe  0.90604382  0.59251695  0.33928172     1.54410
O602        O  0.90336742  0.53808712  0.36058631    -0.79510
O603        O  0.91454149  0.68897970  0.35686191    -0.77810
O604        O  0.85754106  0.53796357  0.40454171    -0.82010
O605        O  0.80913944  0.58519475  0.35689881    -0.76870
O606        O  0.96063089  0.59618887  0.35988262    -0.78640
O607        O  0.85466114  0.68935289  0.41630304    -0.81390
C608        C  0.82032372  0.57903145  0.32303955     0.99380
C609        C  0.88208604  0.52104382  0.38421784     1.06820
O610        O  0.88273679  0.61586919  0.38507256    -1.10370
O611        O  0.90257820  0.64068944  0.46291455    -0.72800
O612        O  0.85822485  0.59522187  0.46279450    -0.76290
O613        O  0.85445719  0.58386697  0.31205789    -0.76980
C614        C  0.88203658  0.61631367  0.47981817     0.98280
O615        O  0.80968389  0.64417084  0.41715525    -0.74940
O616        O  0.96061311  0.64042321  0.40542055    -0.80130
C617        C  0.91954459  0.67797876  0.32275209     1.00900
C618        C  0.97760742  0.61668477  0.38422191     1.06820
O619        O  0.91357858  0.64406869  0.31158516    -0.75770
C620        C  0.82074473  0.67823647  0.42230108     1.05120
Fe621      Fe  0.90616013  0.66131519  0.59286546     1.65780
Fe622      Fe  0.83706237  0.59217001  0.59286600     1.73250
Fe623      Fe  0.90612612  0.59226515  0.66204625     1.54410
O624        O  0.96068931  0.59575697  0.64128768    -0.79510
O625        O  0.80940513  0.58434215  0.64438003    -0.77810
O626        O  0.96065213  0.64021202  0.59594061    -0.82010
O627        O  0.91439828  0.68874489  0.64437979    -0.76870
O628        O  0.90324441  0.53781638  0.64095288    -0.78640
O629        O  0.80963541  0.64371353  0.58449623    -0.81390
C630        C  0.91951490  0.67775849  0.67846839     0.99380
C631        C  0.97765227  0.61635551  0.61701159     1.06820
O632        O  0.88282588  0.61553639  0.61620876    -1.10370
O633        O  0.85819359  0.59518028  0.53839788    -0.72800
O634        O  0.90273125  0.64045097  0.53836629    -0.76290
O635        O  0.91380448  0.64381258  0.68962652    -0.76980
C636        C  0.88206623  0.61623163  0.52140870     0.98280
O637        O  0.85462709  0.68889960  0.58499028    -0.74940
O638        O  0.85797787  0.53765958  0.59641067    -0.80130
C639        C  0.82050663  0.57863993  0.67834921     1.00900
C640        C  0.88224511  0.52076917  0.61708643     1.06820
O641        O  0.85456069  0.58386956  0.68939044    -0.75770
C642        C  0.82066451  0.67778469  0.57929152     1.05120
Fe643      Fe  0.09070384  0.66140259  0.59281714     1.65780
Fe644      Fe  0.09077623  0.59236139  0.66206391     1.73250
Fe645      Fe  0.15993271  0.59236099  0.59293985     1.54420
O646        O  0.13933767  0.59608933  0.53828800    -0.79510
O647        O  0.14231526  0.58456981  0.68981553    -0.77810
O648        O  0.09374750  0.64026793  0.53833291    -0.82010
O649        O  0.14225385  0.68881064  0.58439871    -0.76870
O650        O  0.13870549  0.53790952  0.59570021    -0.78640
O651        O  0.08217138  0.64395593  0.68939414    -0.81390
C652        C  0.17636189  0.67783286  0.57931856     0.99380
C653        C  0.11499999  0.61660403  0.52130923     1.06820
O654        O  0.11410354  0.61567428  0.61624334    -1.10370
O655        O  0.03628921  0.59527713  0.64086278    -0.72800
O656        O  0.03620331  0.64051580  0.59628128    -0.76290
O657        O  0.18758334  0.64394922  0.58536688    -0.76980
C658        C  0.01926366  0.61631030  0.61698255     0.98280
O659        O  0.08269138  0.68909160  0.64433823    -0.74940
O660        O  0.09448652  0.53779389  0.64130117    -0.80130
C661        C  0.17619683  0.57842099  0.67864156     1.00900
C662        C  0.11503720  0.52086545  0.61694820     1.06820
O663        O  0.18721682  0.58359672  0.64455201    -0.75770
C664        C  0.07677955  0.67798141  0.67828591     1.05120
Fe665      Fe  0.90658330  0.33871437  0.40846631     1.65780
Fe666      Fe  0.83734717  0.40773898  0.40864070     1.73250
Fe667      Fe  0.90647095  0.40802597  0.33949849     1.54420
O668        O  0.96106713  0.40406915  0.36006951    -0.79510
O669        O  0.80943129  0.41497626  0.35711523    -0.77810
O670        O  0.96096530  0.36019910  0.40599872    -0.82010
O671        O  0.91564417  0.31168838  0.35679969    -0.76870
O672        O  0.90386352  0.46240510  0.36098124    -0.78640
O673        O  0.81033731  0.35606976  0.41771820    -0.81390
C674        C  0.92043194  0.32273165  0.32266490     0.99380
C675        C  0.97800007  0.38372992  0.38458875     1.06820
O676        O  0.88317064  0.38452972  0.38523671    -1.10370
O677        O  0.85885069  0.40527807  0.46304592    -0.72800
O678        O  0.90249371  0.35914196  0.46313288    -0.76290
O679        O  0.91394992  0.35656630  0.31151766    -0.76980
C680        C  0.88226265  0.38373979  0.48008624     0.98280
O681        O  0.85511771  0.31072505  0.41573771    -0.74940
O682        O  0.85767290  0.46244030  0.40455576    -0.80130
C683        C  0.82065448  0.42158071  0.32332515     1.00900
C684        C  0.88225835  0.47942272  0.38433470     1.06820
O685        O  0.85484187  0.41698585  0.31237202    -0.75770
C686        C  0.82132732  0.32190328  0.42234516     1.05120
Fe687      Fe  0.09100042  0.40788543  0.33942882     1.65780
Fe688      Fe  0.16013476  0.40800095  0.40853121     1.73250
Fe689      Fe  0.09119828  0.33868806  0.40847020     1.54410
O690        O  0.03661960  0.35951745  0.40519038    -0.79510
O691        O  0.18775630  0.35652952  0.41677412    -0.77810
O692        O  0.03654617  0.40464654  0.36050719    -0.82010
O693        O  0.08289994  0.35637282  0.31194303    -0.76870
O694        O  0.09430939  0.35969228  0.46294403    -0.78640
O695        O  0.18762910  0.41598356  0.35698467    -0.81390
C696        C  0.07765395  0.32230827  0.32294390     0.99380
C697        C  0.01960664  0.38368710  0.38449916     1.06820
O698        O  0.11440335  0.38457060  0.38519075    -1.10370
O699        O  0.13912599  0.46250860  0.40518600    -0.72800
O700        O  0.09421405  0.46240680  0.36031194    -0.76290
O701        O  0.08329127  0.31116247  0.35690853    -0.76980
C702        C  0.11504395  0.47943961  0.38433346     0.98280
O703        O  0.14251101  0.41590095  0.31190870    -0.74940
O704        O  0.13905553  0.40477255  0.46298290    -0.80130
C705        C  0.17678302  0.32247881  0.42222603     1.00900
C706        C  0.11505368  0.38382712  0.47992768     1.06820
O707        O  0.14281726  0.31130366  0.41665257    -0.75770
C708        C  0.17652587  0.42135680  0.32296525     1.05120
Fe709      Fe  0.83730751  0.40760780  0.59331015     1.65780
Fe710      Fe  0.90660813  0.33866550  0.59323774     1.73250
Fe711      Fe  0.90656944  0.40785591  0.66230557     1.54420
O712        O  0.90344634  0.46226590  0.64103473    -0.79510
O713        O  0.91514797  0.31133472  0.64482519    -0.77810
O714        O  0.85808127  0.46215479  0.59658975    -0.82010
O715        O  0.80977313  0.41560858  0.64490598    -0.76870
O716        O  0.96108735  0.40440089  0.64137918    -0.78640
O717        O  0.85514430  0.31093252  0.58550121    -0.81390
C718        C  0.82094797  0.42155665  0.67881844     0.99380
C719        C  0.88233314  0.47917988  0.61716135     1.06820
O720        O  0.88319763  0.38440986  0.61658992    -1.10370
O721        O  0.90298857  0.35947809  0.53866239    -0.72800
O722        O  0.85828178  0.40455830  0.53875662    -0.76290
O723        O  0.85502871  0.41630597  0.68981890    -0.76980
C724        C  0.88223325  0.38364217  0.52171776     0.98280
O725        O  0.80999817  0.35596526  0.58515518    -0.74940
O726        O  0.96103090  0.35985728  0.59612667    -0.80130
C727        C  0.92043914  0.32239727  0.67887655     1.00900
C728        C  0.97803337  0.38373982  0.61714310     1.06820
O729        O  0.91456312  0.35633969  0.69000763    -0.75770
C730        C  0.82114795  0.32195244  0.57983604     1.05120
Fe731      Fe  0.16017653  0.40782314  0.59294256     1.65780
Fe732      Fe  0.09107044  0.40768384  0.66207737     1.73250
Fe733      Fe  0.09113356  0.33862246  0.59291625     1.54420
O734        O  0.09399212  0.35989872  0.53849493    -0.79510
O735        O  0.08256249  0.35609902  0.68936297    -0.77810
O736        O  0.13933261  0.40437048  0.53845092    -0.82010
O737        O  0.18787732  0.35633530  0.58506584    -0.76870
O738        O  0.03656694  0.35937529  0.59657749    -0.78640
O739        O  0.14257666  0.41526347  0.68973214    -0.81390
C740        C  0.17678489  0.32239263  0.57918120     0.99380
C741        C  0.11504694  0.38377680  0.52150962     1.06820
O742        O  0.11441940  0.38441421  0.61626818    -1.10370
O743        O  0.09466222  0.46227414  0.64137680    -0.72800
O744        O  0.13898973  0.46227697  0.59592050    -0.76290
O745        O  0.14272227  0.31132110  0.58434916    -0.76980
C746        C  0.11516774  0.47925439  0.61702973     0.98280
O747        O  0.18752421  0.41612989  0.64449972    -0.74940
O748        O  0.03664355  0.40486181  0.64088839    -0.80130
C749        C  0.07754999  0.32199926  0.67835769     1.00900
C750        C  0.01963042  0.38372095  0.61712045     1.06820
O751        O  0.08348498  0.31086889  0.64443258    -0.75770
C752        C  0.17650363  0.42111211  0.67859965     1.05120
C753        C  0.77754557  0.46514426  0.28054338    -0.11110
C754        C  0.79472564  0.44056410  0.29768297    -0.12670
C755        C  0.79443878  0.56017574  0.29735095    -0.11110
C756        C  0.77734102  0.53549918  0.28033378    -0.12670
C757        C  0.77861686  0.27882952  0.46600849    -0.11110
C758        C  0.79573328  0.29596216  0.44137695    -0.12670
C759        C  0.77842742  0.27887785  0.53637124    -0.11110
C760        C  0.79544671  0.29604767  0.56100406    -0.12670
C761        C  0.05895839  0.29649170  0.29707261    -0.11110
C762        C  0.03439336  0.27947427  0.27981861    -0.12670
C763        C  0.93946951  0.29711809  0.29673820    -0.11110
C764        C  0.96406047  0.27992007  0.27962871    -0.12670
C765        C  0.77783315  0.46508425  0.72165208    -0.11110
C766        C  0.79510609  0.44052022  0.70457678    -0.12670
C767        C  0.79463702  0.55993327  0.70418423    -0.11110
C768        C  0.77753081  0.53541342  0.72143416    -0.12670
C769        C  0.71925726  0.46495344  0.22196527    -0.11110
C770        C  0.70225843  0.44033888  0.20475902    -0.12670
C771        C  0.70209267  0.44055002  0.79712299    -0.11110
C772        C  0.71920984  0.46512666  0.77995818    -0.12670
C773        C  0.71906358  0.53546863  0.77990142    -0.11110
C774        C  0.70186476  0.56002480  0.79706227    -0.12670
C775        C  0.71890318  0.53528179  0.22194592    -0.11110
C776        C  0.70167849  0.55980346  0.20477829    -0.12670
C777        C  0.46371299  0.27880153  0.78027047    -0.11110
C778        C  0.43904511  0.29586676  0.79732165    -0.12670
C779        C  0.53405025  0.27902348  0.78038116    -0.11110
C780        C  0.55860278  0.29622536  0.79752449    -0.12670
C781        C  0.27770218  0.46436855  0.78012997    -0.11110
C782        C  0.29484236  0.43979008  0.79733427    -0.12670
C783        C  0.27769173  0.53470492  0.77986332    -0.11110
C784        C  0.29485251  0.55928309  0.79693556    -0.12670
C785        C  0.21932032  0.46436824  0.72166715    -0.11110
C786        C  0.20226525  0.43977771  0.70451213    -0.12670
C787        C  0.21908821  0.53471324  0.72158840    -0.11110
C788        C  0.20190293  0.55932071  0.70446293    -0.12670
C789        C  0.77785902  0.72117923  0.46582909    -0.11110
C790        C  0.79503205  0.70409487  0.44122819    -0.12670
C791        C  0.79483916  0.70369002  0.56062969    -0.11110
C792        C  0.77769356  0.72094723  0.53614677    -0.12670
C793        C  0.46383839  0.22030735  0.72197882    -0.11110
C794        C  0.43921840  0.20313288  0.70490225    -0.12670
C795        C  0.70270837  0.20340299  0.56090600    -0.11110
C796        C  0.71993844  0.22052565  0.53635696    -0.12670
C797        C  0.55879714  0.20369571  0.70469468    -0.11110
C798        C  0.53417920  0.22070281  0.72187467    -0.12670
C799        C  0.70204690  0.79634657  0.56091431    -0.11110
C800        C  0.71920393  0.77931950  0.53625382    -0.12670
C801        C  0.70277094  0.20343683  0.44150529    -0.11110
C802        C  0.71999378  0.22055252  0.46603412    -0.12670
C803        C  0.71939862  0.77949318  0.46587612    -0.11110
C804        C  0.70238374  0.79657546  0.44117460    -0.12670
C805        C  0.46299521  0.77899776  0.28012177    -0.11110
C806        C  0.43847948  0.79619759  0.29726081    -0.12670
C807        C  0.46296788  0.72045212  0.22170652    -0.11110
C808        C  0.43845600  0.70321977  0.20449466    -0.12670
C809        C  0.53333247  0.77906033  0.28025328    -0.11110
C810        C  0.55793422  0.79622384  0.29741055    -0.12670
C811        C  0.53329399  0.72059163  0.22180795    -0.11110
C812        C  0.55785583  0.70347375  0.20465311    -0.12670
C813        C  0.27771016  0.77923304  0.46548006    -0.11110
C814        C  0.29494999  0.79638517  0.44097523    -0.12670
C815        C  0.27756513  0.77918099  0.53579825    -0.11110
C816        C  0.29468097  0.79632200  0.56038780    -0.12670
C817        C  0.21918267  0.72092929  0.46531605    -0.11110
C818        C  0.20209265  0.70390424  0.44062139    -0.12670
C819        C  0.21919741  0.72072881  0.53569137    -0.11110
C820        C  0.20215038  0.70358597  0.56034580    -0.12670
C821        C  0.46275066  0.72053690  0.78011475    -0.11110
C822        C  0.43820048  0.70326990  0.79718822    -0.12670
C823        C  0.46270742  0.77899703  0.72169102    -0.11110
C824        C  0.43815327  0.79612572  0.70451189    -0.12670
C825        C  0.53308726  0.72087284  0.78032289    -0.11110
C826        C  0.55772222  0.70386672  0.79751426    -0.12670
C827        C  0.53304124  0.77915020  0.72174513    -0.11110
C828        C  0.55765399  0.79628466  0.70462330    -0.12670
C829        C  0.27803203  0.03477016  0.28008306    -0.11110
C830        C  0.29523159  0.05932350  0.29726683    -0.12670
C831        C  0.27795345  0.96443622  0.27988474    -0.11110
C832        C  0.29510233  0.93989605  0.29704722    -0.12670
C833        C  0.29581438  0.29504304  0.06068110    -0.11110
C834        C  0.27880508  0.27789601  0.03600685    -0.12670
C835        C  0.27862104  0.27802357  0.96564689    -0.11110
C836        C  0.29558198  0.29527515  0.94102692    -0.12670
C837        C  0.29490813  0.43973522  0.20445083    -0.11110
C838        C  0.27773483  0.46441878  0.22144333    -0.12670
C839        C  0.21935810  0.46456456  0.27985068    -0.11110
C840        C  0.20232487  0.44000544  0.29707534    -0.12670
C841        C  0.29448702  0.55942115  0.20412489    -0.11110
C842        C  0.27746448  0.53477681  0.22124356    -0.12670
C843        C  0.20190764  0.55954661  0.29667006    -0.11110
C844        C  0.21906572  0.53489729  0.27961535    -0.12670
C845        C  0.27846135  0.22113556  0.46554138    -0.11110
C846        C  0.29557555  0.20393700  0.44097402    -0.12670
C847        C  0.20269065  0.29669652  0.44100223    -0.11110
C848        C  0.21993589  0.27954150  0.46550896    -0.12670
C849        C  0.29547289  0.20403012  0.56055640    -0.11110
C850        C  0.27842414  0.22117676  0.53590255    -0.12670
C851        C  0.21992294  0.27953793  0.53582908    -0.11110
C852        C  0.20269606  0.29665809  0.56036448    -0.12670
C853        C  0.46407831  0.27903616  0.22197775    -0.11110
C854        C  0.43940355  0.29607932  0.20488282    -0.12670
C855        C  0.46414787  0.22052788  0.28026907    -0.11110
C856        C  0.43950773  0.20331627  0.29725853    -0.12670
C857        C  0.55898456  0.29624547  0.20474554    -0.11110
C858        C  0.53442133  0.27912494  0.22193490    -0.12670
C859        C  0.53448480  0.22087037  0.28051400    -0.11110
C860        C  0.55907888  0.20383054  0.29771929    -0.12670
C861        C  0.05883626  0.20383751  0.20415889    -0.11110
C862        C  0.03431623  0.22111902  0.22128194    -0.12670
C863        C  0.21935679  0.03482032  0.22182814    -0.11110
C864        C  0.20213624  0.05940059  0.20479148    -0.12670
C865        C  0.22047703  0.21947718  0.03602033    -0.11110
C866        C  0.20333163  0.20246242  0.06066888    -0.12670
C867        C  0.20293972  0.20255818  0.94110363    -0.11110
C868        C  0.22023269  0.21956367  0.96567949    -0.12670
C869        C  0.96398448  0.22143891  0.22123639    -0.11110
C870        C  0.93936981  0.20434754  0.20411983    -0.12670
C871        C  0.20234854  0.93996300  0.20411891    -0.11110
C872        C  0.21949647  0.96448493  0.22139703    -0.12670
C873        C  0.05769540  0.79634835  0.79662827    -0.11110
C874        C  0.03305071  0.77930299  0.77952255    -0.12670
C875        C  0.96270863  0.77937401  0.77967659    -0.11110
C876        C  0.93814281  0.79652152  0.79686927    -0.12670
C877        C  0.03304868  0.72088349  0.72112242    -0.11110
C878        C  0.05768409  0.70378341  0.70397984    -0.12670
C879        C  0.96271468  0.72082209  0.72137665    -0.11110
C880        C  0.93815903  0.70361440  0.70431515    -0.12670
C881        C  0.77757866  0.03521989  0.78051159    -0.11110
C882        C  0.79487678  0.05983495  0.79747263    -0.12670
C883        C  0.77708883  0.96487007  0.78068685    -0.11110
C884        C  0.79410392  0.94020067  0.79778098    -0.12670
C885        C  0.70204993  0.05995629  0.70510627    -0.11110
C886        C  0.71904034  0.03532236  0.72227118    -0.12670
C887        C  0.70155229  0.94038947  0.70513810    -0.11110
C888        C  0.71868826  0.96498329  0.72229469    -0.12670
C889        C  0.77689069  0.77995185  0.03637059    -0.11110
C890        C  0.79409304  0.79719422  0.06085369    -0.12670
C891        C  0.77710526  0.77956813  0.96603640    -0.11110
C892        C  0.79438525  0.79652857  0.94142167    -0.12670
C893        C  0.71858378  0.72129775  0.03644489    -0.11110
C894        C  0.70150474  0.70404411  0.06099739    -0.12670
C895        C  0.71860420  0.72119456  0.96609476    -0.11110
C896        C  0.70155169  0.70399109  0.94147819    -0.12670
C897        C  0.21852875  0.77830723  0.03567754    -0.11110
C898        C  0.20156478  0.79561743  0.06026775    -0.12670
C899        C  0.20117339  0.79517262  0.94070075    -0.11110
C900        C  0.21827396  0.77802753  0.96532066    -0.12670
C901        C  0.27693347  0.71979307  0.03569921    -0.11110
C902        C  0.29424183  0.70275361  0.06024849    -0.12670
C903        C  0.27670122  0.71959342  0.96536945    -0.11110
C904        C  0.29390842  0.70246810  0.94082792    -0.12670
C905        C  0.77846722  0.22139667  0.03598678    -0.11110
C906        C  0.79550487  0.20420558  0.06060461    -0.12670
C907        C  0.77851760  0.22145811  0.96563761    -0.11110
C908        C  0.79557966  0.20424169  0.94104989    -0.12670
C909        C  0.72007211  0.27980464  0.03603562    -0.11110
C910        C  0.70286064  0.29679182  0.06067426    -0.12670
C911        C  0.70293091  0.29706584  0.94112715    -0.11110
C912        C  0.72013646  0.27995898  0.96568909    -0.12670
C913        C  0.77839970  0.03568507  0.22207438    -0.11110
C914        C  0.79557067  0.06027311  0.20492733    -0.12670
C915        C  0.79519593  0.94077200  0.20469952    -0.11110
C916        C  0.77815351  0.96534681  0.22191603    -0.12670
C917        C  0.71992841  0.03559943  0.28047538    -0.11110
C918        C  0.70283294  0.06014282  0.29767847    -0.12670
C919        C  0.71955404  0.96526066  0.28021492    -0.11110
C920        C  0.70227007  0.94065115  0.29722680    -0.12670
C921        C  0.03336010  0.77919917  0.22143526    -0.11110
C922        C  0.05801988  0.79621129  0.20429659    -0.12670
C923        C  0.96302652  0.77942723  0.22152570    -0.11110
C924        C  0.93845831  0.79664484  0.20444679    -0.12670
C925        C  0.03331227  0.72078850  0.27979396    -0.11110
C926        C  0.05797219  0.70369464  0.29686925    -0.12670
C927        C  0.93834985  0.70374335  0.29688485    -0.11110
C928        C  0.96296530  0.72086097  0.27978469    -0.12670
C929        C  0.21916468  0.03472709  0.77982013    -0.11110
C930        C  0.20210819  0.05930538  0.79700958    -0.12670
C931        C  0.20185427  0.93979502  0.79692075    -0.11110
C932        C  0.21901059  0.96439281  0.77978497    -0.12670
C933        C  0.29474048  0.05941495  0.70430530    -0.11110
C934        C  0.27756129  0.03478034  0.72137189    -0.12670
C935        C  0.27740525  0.96443188  0.72135758    -0.11110
C936        C  0.29451206  0.93982787  0.70425669    -0.12670
C937        C  0.03425286  0.22061175  0.77995942    -0.11110
C938        C  0.05878348  0.20343253  0.79715004    -0.12670
C939        C  0.96391417  0.22068882  0.77989550    -0.11110
C940        C  0.93927358  0.20357504  0.79697966    -0.12670
C941        C  0.05882385  0.29610178  0.70416804    -0.11110
C942        C  0.03429654  0.27901267  0.72143439    -0.12670
C943        C  0.93938609  0.29662976  0.70468577    -0.11110
C944        C  0.96397226  0.27936735  0.72171230    -0.12670
loop_ 
_geom_bond_atom_site_label_1 
_geom_bond_atom_site_label_2 
_geom_bond_distance 
_geom_bond_site_symmetry_2 
_ccdc_geom_bond_type 
C1            C2   1.353       .  D
C1          C942   1.455   1_655  S
C1          C944   1.456       .  S
C2          C937   1.456   1_655  S
C2          C939   1.455       .  S
C3            C4   1.353       .  D
C3          C934   1.457   1_565  S
C3          C935   1.455       .  S
C4          C929   1.455   1_565  S
C4          C932   1.456       .  S
C5            C6   1.352       .  D
C5          C925   1.456   1_655  S
C5          C928   1.455       .  S
C6          C921   1.455   1_655  S
C6          C923   1.456       .  S
C7            C8   1.353       .  D
C7          C913   1.457       .  S
C7          C916   1.455   1_545  S
C8          C917   1.455       .  S
C8          C919   1.457   1_545  S
C9           C10   1.353       .  D
C9          C909   1.456       .  S
C9          C912   1.456   1_554  S
C10         C905   1.456       .  S
C10         C907   1.456   1_554  S
C11          C12   1.353       .  D
C11         C901   1.456       .  S
C11         C903   1.456   1_554  S
C12         C897   1.456       .  S
C12         C900   1.456   1_554  S
C13          C14   1.353       .  D
C13         C893   1.456       .  S
C13         C895   1.456   1_554  S
C14         C889   1.456       .  S
C14         C891   1.456   1_554  S
C15          C16   1.352       .  D
C15         C886   1.454       .  S
C15         C888   1.457   1_545  S
C16         C881   1.457       .  S
C16         C883   1.454   1_545  S
C17          C18   1.353       .  D
C17         C874   1.454   1_655  S
C17         C875   1.457       .  S
C18         C877   1.457   1_655  S
C18         C879   1.454       .  S
Fe19         O35   2.069       .  S
Fe19         O25   2.070       .  S
Fe19         O32   2.052       .  S
Fe19         O24   2.051       .  S
Fe19         O30   1.980       .  S
Fe20         O23   2.069       .  S
Fe20         O27   2.069       .  S
Fe20         O31   2.052       .  S
Fe20         O36   2.052       .  S
Fe20         O30   1.980       .  S
Fe21         O39   2.071       .  S
Fe21         O26   2.052       .  S
Fe21         O33   2.069       .  S
Fe21         O22   2.053       .  S
Fe21         O30   1.979       .  S
O22          C29   1.266       .  A
O23          C37   1.269       .  A
O24          C29   1.265       .  A
O25          C28   1.269       .  A
O26          C38   1.266       .  A
O27          C40   1.270       .  A
C28          O33   1.269       .  A
C28         C899   1.441       .  S
C29          C82   1.460   1_556  S
O31          C34   1.265       .  A
O32          C34   1.265       .  A
C34          C60   1.459   1_455  S
O35          C40   1.269       .  A
O36          C38   1.266       .  A
C37          O39   1.270       .  A
C37         C931   1.442       .  S
C38         C166   1.460   1_565  S
C40         C873   1.440       .  S
Fe41         O57   2.069       .  S
Fe41         O47   2.068       .  S
Fe41         O54   2.051       .  S
Fe41         O46   2.051       .  S
Fe41         O52   1.980       .  S
Fe42         O45   2.071       .  S
Fe42         O49   2.068       .  S
Fe42         O53   2.054       .  S
Fe42         O58   2.051       .  S
Fe42         O52   1.979       .  S
Fe43         O61   2.070       .  S
Fe43         O48   2.053       .  S
Fe43         O55   2.071       .  S
Fe43         O44   2.052       .  S
Fe43         O52   1.980       .  S
O44          C51   1.265       .  A
O45          C59   1.270       .  A
O46          C51   1.265       .  A
O47          C50   1.269       .  A
O48          C60   1.266       .  A
O49          C62   1.269       .  A
C50          O55   1.270       .  A
C50         C892   1.441       .  S
C51          C95   1.459   1_556  S
O53          C56   1.266       .  A
O54          C56   1.265       .  A
C56         C117   1.460   1_565  S
O57          C62   1.269       .  A
O58          C60   1.265       .  A
C59          O61   1.269       .  A
C59         C876   1.442       .  S
C62         C884   1.440       .  S
Fe63         O79   2.069       .  S
Fe63         O69   2.070       .  S
Fe63         O76   2.053       .  S
Fe63         O68   2.051       .  S
Fe63         O74   1.980       .  S
Fe64         O67   2.069       .  S
Fe64         O71   2.069       .  S
Fe64         O75   2.052       .  S
Fe64         O80   2.051       .  S
Fe64         O74   1.980       .  S
Fe65         O83   2.070       .  S
Fe65         O70   2.053       .  S
Fe65         O77   2.071       .  S
Fe65         O66   2.052       .  S
Fe65         O74   1.980       .  S
O66          C73   1.266       .  A
O67          C81   1.270       .  A
O68          C73   1.265       .  A
O69          C72   1.269       .  A
O70          C82   1.265       .  A
O71          C84   1.269       .  A
C72          O77   1.270       .  A
C72         C871   1.443       .  S
C73         C183   1.459   1_565  S
O75          C78   1.265       .  A
O76          C78   1.266       .  A
C78         C100   1.460   1_455  S
O79          C84   1.269       .  A
O80          C82   1.265       .  A
C81          O83   1.270       .  A
C81         C898   1.441       .  S
C84         C922   1.440       .  S
Fe85        O101   2.069       .  S
Fe85         O91   2.070       .  S
Fe85         O98   2.053       .  S
Fe85         O90   2.052       .  S
Fe85         O96   1.980       .  S
Fe86         O89   2.069       .  S
Fe86         O93   2.069       .  S
Fe86         O97   2.052       .  S
Fe86        O102   2.052       .  S
Fe86         O96   1.980       .  S
Fe87        O105   2.069       .  S
Fe87         O92   2.052       .  S
Fe87         O99   2.070       .  S
Fe87         O88   2.051       .  S
Fe87         O96   1.980       .  S
O88          C95   1.265       .  A
O89         C103   1.269       .  A
O90          C95   1.266       .  A
O91          C94   1.269       .  A
O92         C104   1.265       .  A
O93         C106   1.269       .  A
C94          O99   1.270       .  A
C94         C890   1.442       .  S
O97         C100   1.265       .  A
O98         C100   1.266       .  A
O101        C106   1.269       .  A
O102        C104   1.265       .  A
C103        O105   1.269       .  A
C103        C915   1.440       .  S
C104        C139   1.459   1_565  S
C106        C924   1.441       .  S
Fe107       O123   2.070       .  S
Fe107       O113   2.070       .  S
Fe107       O120   2.053       .  S
Fe107       O112   2.053       .  S
Fe107       O118   1.980       .  S
Fe108       O111   2.069       .  S
Fe108       O115   2.069       .  S
Fe108       O119   2.052       .  S
Fe108       O124   2.051       .  S
Fe108       O118   1.980       .  S
Fe109       O127   2.070       .  S
Fe109       O114   2.052       .  S
Fe109       O121   2.070       .  S
Fe109       O110   2.052       .  S
Fe109       O118   1.980       .  S
O110        C117   1.265       .  A
O111        C125   1.269       .  A
O112        C117   1.266       .  A
O113        C116   1.270       .  A
O114        C126   1.266       .  A
O115        C128   1.269       .  A
C116        O121   1.270       .  A
C116        C882   1.442       .  S
O119        C122   1.265       .  A
O120        C122   1.266       .  A
C122        C148   1.460   1_556  S
O123        C128   1.270       .  A
O124        C126   1.265       .  A
C125        O127   1.269       .  A
C125        C940   1.441       .  S
C126        C170   1.459   1_655  S
C128        C908   1.441       .  S
Fe129       O145   2.069       .  S
Fe129       O135   2.070       .  S
Fe129       O142   2.052       .  S
Fe129       O134   2.051       .  S
Fe129       O140   1.980       .  S
Fe130       O133   2.068       .  S
Fe130       O137   2.069       .  S
Fe130       O141   2.051       .  S
Fe130       O146   2.053       .  S
Fe130       O140   1.980       .  S
Fe131       O149   2.070       .  S
Fe131       O136   2.052       .  S
Fe131       O143   2.070       .  S
Fe131       O132   2.053       .  S
Fe131       O140   1.979       .  S
O132        C139   1.266       .  A
O133        C147   1.269       .  A
O134        C139   1.265       .  A
O135        C138   1.270       .  A
O136        C148   1.265       .  A
O137        C150   1.270       .  A
C138        O143   1.269       .  A
C138        C914   1.442       .  S
O141        C144   1.265       .  A
O142        C144   1.265       .  A
C144        C192   1.459   1_655  S
O145        C150   1.269       .  A
O146        C148   1.266       .  A
C147        O149   1.270       .  A
C147        C906   1.441       .  S
C150        C870   1.440       .  S
Fe151       O167   2.069       .  S
Fe151       O157   2.069       .  S
Fe151       O164   2.052       .  S
Fe151       O156   2.052       .  S
Fe151       O162   1.980       .  S
Fe152       O155   2.069       .  S
Fe152       O159   2.069       .  S
Fe152       O163   2.052       .  S
Fe152       O168   2.051       .  S
Fe152       O162   1.980       .  S
Fe153       O171   2.070       .  S
Fe153       O158   2.052       .  S
Fe153       O165   2.070       .  S
Fe153       O154   2.052       .  S
Fe153       O162   1.980       .  S
O154        C161   1.265       .  A
O155        C169   1.269       .  A
O156        C161   1.266       .  A
O157        C160   1.269       .  A
O158        C170   1.266       .  A
O159        C172   1.269       .  A
C160        O165   1.270       .  A
C160        C867   1.441       .  S
C161        C188   1.460   1_556  S
O163        C166   1.265       .  A
O164        C166   1.265       .  A
O167        C172   1.269       .  A
O168        C170   1.265       .  A
C169        O171   1.270       .  A
C169        C938   1.441       .  S
C172        C930   1.440       .  S
Fe173       O189   2.069       .  S
Fe173       O179   2.068       .  S
Fe173       O186   2.051       .  S
Fe173       O178   2.051       .  S
Fe173       O184   1.980       .  S
Fe174       O177   2.071       .  S
Fe174       O181   2.068       .  S
Fe174       O185   2.054       .  S
Fe174       O190   2.051       .  S
Fe174       O184   1.979       .  S
Fe175       O193   2.070       .  S
Fe175       O180   2.052       .  S
Fe175       O187   2.070       .  S
Fe175       O176   2.052       .  S
Fe175       O184   1.980       .  S
O176        C183   1.265       .  A
O177        C191   1.270       .  A
O178        C183   1.265       .  A
O179        C182   1.269       .  A
O180        C192   1.266       .  A
O181        C194   1.269       .  A
C182        O187   1.270       .  A
C182        C864   1.440       .  S
O185        C188   1.266       .  A
O186        C188   1.265       .  A
O189        C194   1.269       .  A
O190        C192   1.266       .  A
C191        O193   1.269       .  A
C191        C861   1.442       .  S
C194        C866   1.440       .  S
C195        C196   1.352       .  D
C195        C855   1.456       .  S
C195        C859   1.455       .  S
C196        C853   1.455       .  S
C196        C858   1.456       .  S
C197        C198   1.353       .  D
C197        C848   1.456       .  S
C197        C851   1.456       .  S
C198        C845   1.456       .  S
C198        C850   1.456       .  S
C199        C200   1.352       .  D
C199        C839   1.454       .  S
C199        C844   1.457       .  S
C200        C838   1.457       .  S
C200        C842   1.454       .  S
C201        C202   1.352       .  D
C201        C865   1.455       .  S
C201        C868   1.456   1_554  S
C202        C834   1.456       .  S
C202        C835   1.455   1_554  S
C203        C204   1.353       .  D
C203        C863   1.455   1_565  S
C203        C872   1.457       .  S
C204        C829   1.457   1_565  S
C204        C831   1.455       .  S
C205        C206   1.353       .  D
C205        C821   1.456       .  S
C205        C825   1.455       .  S
C206        C823   1.455       .  S
C206        C827   1.456       .  S
C207        C208   1.353       .  D
C207        C817   1.456       .  S
C207        C819   1.456       .  S
C208        C813   1.455       .  S
C208        C815   1.455       .  S
C209        C210   1.353       .  D
C209        C807   1.457       .  S
C209        C811   1.455       .  S
C210        C805   1.455       .  S
C210        C809   1.458       .  S
Fe211       O227   2.069       .  S
Fe211       O217   2.068       .  S
Fe211       O224   2.051       .  S
Fe211       O216   2.052       .  S
Fe211       O222   1.979       .  S
Fe212       O215   2.068       .  S
Fe212       O219   2.069       .  S
Fe212       O223   2.051       .  S
Fe212       O228   2.052       .  S
Fe212       O222   1.980       .  S
Fe213       O231   2.068       .  S
Fe213       O218   2.051       .  S
Fe213       O225   2.068       .  S
Fe213       O214   2.051       .  S
Fe213       O222   1.980       .  S
O214        C221   1.265       .  A
O215        C229   1.269       .  A
O216        C221   1.266       .  A
O217        C220   1.269       .  A
O218        C230   1.265       .  A
O219        C232   1.269       .  A
C220        O225   1.269       .  A
C220        C806   1.440       .  S
C221        C274   1.459       .  S
O223        C226   1.265       .  A
O224        C226   1.265       .  A
C226        C384   1.459       .  S
O227        C232   1.269       .  A
O228        C230   1.266       .  A
C229        O231   1.269       .  A
C229        C832   1.440       .  S
C230        C243   1.459   1_565  S
C232        C814   1.441       .  S
Fe233       O249   2.070       .  S
Fe233       O239   2.071       .  S
Fe233       O246   2.053       .  S
Fe233       O238   2.051       .  S
Fe233       O244   1.980       .  S
Fe234       O237   2.069       .  S
Fe234       O241   2.070       .  S
Fe234       O245   2.051       .  S
Fe234       O250   2.052       .  S
Fe234       O244   1.980       .  S
Fe235       O253   2.070       .  S
Fe235       O240   2.052       .  S
Fe235       O247   2.071       .  S
Fe235       O236   2.052       .  S
Fe235       O244   1.980       .  S
O236        C243   1.266       .  A
O237        C251   1.269       .  A
O238        C243   1.265       .  A
O239        C242   1.270       .  A
O240        C252   1.265       .  A
O241        C254   1.270       .  A
C242        O247   1.270       .  A
C242        C830   1.443       .  S
O245        C248   1.265       .  A
O246        C248   1.266       .  A
C248        C358   1.460       .  S
O249        C254   1.269       .  A
O250        C252   1.265       .  A
C251        O253   1.270       .  A
C251        C856   1.441       .  S
C252        C296   1.460       .  S
C254        C846   1.441       .  S
Fe255       O271   2.069       .  S
Fe255       O261   2.070       .  S
Fe255       O268   2.052       .  S
Fe255       O260   2.051       .  S
Fe255       O266   1.980       .  S
Fe256       O259   2.071       .  S
Fe256       O263   2.069       .  S
Fe256       O267   2.054       .  S
Fe256       O272   2.050       .  S
Fe256       O266   1.980       .  S
Fe257       O275   2.071       .  S
Fe257       O262   2.053       .  S
Fe257       O269   2.072       .  S
Fe257       O258   2.052       .  S
Fe257       O266   1.980       .  S
O258        C265   1.266       .  A
O259        C273   1.270       .  A
O260        C265   1.265       .  A
O261        C264   1.269       .  A
O262        C274   1.266       .  A
O263        C276   1.269       .  A
C264        O269   1.270       .  A
C264        C920   1.442       .  S
C265        C292   1.459   1_565  S
O267        C270   1.266       .  A
O268        C270   1.265       .  A
C270        C309   1.461       .  S
O271        C276   1.270       .  A
O272        C274   1.265       .  A
C273        O275   1.270       .  A
C273        C810   1.443       .  S
C276        C804   1.440       .  S
Fe277       O293   2.068       .  S
Fe277       O283   2.069       .  S
Fe277       O290   2.052       .  S
Fe277       O282   2.051       .  S
Fe277       O288   1.980       .  S
Fe278       O281   2.068       .  S
Fe278       O285   2.068       .  S
Fe278       O289   2.052       .  S
Fe278       O294   2.052       .  S
Fe278       O288   1.980       .  S
Fe279       O297   2.069       .  S
Fe279       O284   2.052       .  S
Fe279       O291   2.069       .  S
Fe279       O280   2.051       .  S
Fe279       O288   1.980       .  S
O280        C287   1.265       .  A
O281        C295   1.269       .  A
O282        C287   1.265       .  A
O283        C286   1.269       .  A
O284        C296   1.266       .  A
O285        C298   1.269       .  A
C286        O291   1.269       .  A
C286        C801   1.441       .  S
C287        C340   1.458       .  S
O289        C292   1.265       .  A
O290        C292   1.265       .  A
O293        C298   1.269       .  A
O294        C296   1.266       .  A
C295        O297   1.269       .  A
C295        C860   1.440       .  S
C298        C918   1.440       .  S
Fe299       O315   2.070       .  S
Fe299       O305   2.070       .  S
Fe299       O312   2.052       .  S
Fe299       O304   2.053       .  S
Fe299       O310   1.980       .  S
Fe300       O303   2.069       .  S
Fe300       O307   2.070       .  S
Fe300       O311   2.052       .  S
Fe300       O316   2.052       .  S
Fe300       O310   1.980       .  S
Fe301       O319   2.070       .  S
Fe301       O306   2.051       .  S
Fe301       O313   2.069       .  S
Fe301       O302   2.053       .  S
Fe301       O310   1.980       .  S
O302        C309   1.266       .  A
O303        C317   1.269       .  A
O304        C309   1.266       .  A
O305        C308   1.270       .  A
O306        C318   1.265       .  A
O307        C320   1.270       .  A
C308        O313   1.269       .  A
C308        C799   1.441       .  S
O311        C314   1.265       .  A
O312        C314   1.266       .  A
C314        C336   1.459   1_565  S
O315        C320   1.270       .  A
O316        C318   1.265       .  A
C317        O319   1.270       .  A
C317        C828   1.441       .  S
C318        C375   1.459       .  S
C320        C887   1.442       .  S
Fe321       O337   2.068       .  S
Fe321       O327   2.068       .  S
Fe321       O334   2.051       .  S
Fe321       O326   2.051       .  S
Fe321       O332   1.980       .  S
Fe322       O325   2.070       .  S
Fe322       O329   2.068       .  S
Fe322       O333   2.052       .  S
Fe322       O338   2.051       .  S
Fe322       O332   1.980       .  S
Fe323       O341   2.070       .  S
Fe323       O328   2.051       .  S
Fe323       O335   2.069       .  S
Fe323       O324   2.053       .  S
Fe323       O332   1.979       .  S
O324        C331   1.265       .  A
O325        C339   1.269       .  A
O326        C331   1.265       .  A
O327        C330   1.269       .  A
O328        C340   1.265       .  A
O329        C342   1.269       .  A
C330        O335   1.269       .  A
C330        C797   1.440       .  S
C331        C353   1.460       .  S
O333        C336   1.265       .  A
O334        C336   1.265       .  A
O337        C342   1.269       .  A
O338        C340   1.265       .  A
C339        O341   1.269       .  A
C339        C795   1.442       .  S
C342        C885   1.439       .  S
Fe343       O359   2.070       .  S
Fe343       O349   2.070       .  S
Fe343       O356   2.052       .  S
Fe343       O348   2.052       .  S
Fe343       O354   1.980       .  S
Fe344       O347   2.070       .  S
Fe344       O351   2.069       .  S
Fe344       O355   2.053       .  S
Fe344       O360   2.051       .  S
Fe344       O354   1.980       .  S
Fe345       O363   2.070       .  S
Fe345       O350   2.053       .  S
Fe345       O357   2.071       .  S
Fe345       O346   2.052       .  S
Fe345       O354   1.980       .  S
O346        C353   1.265       .  A
O347        C361   1.270       .  A
O348        C353   1.265       .  A
O349        C352   1.270       .  A
O350        C362   1.266       .  A
O351        C364   1.269       .  A
C352        O357   1.270       .  A
C352        C794   1.442       .  S
O355        C358   1.266       .  A
O356        C358   1.266       .  A
O359        C364   1.270       .  A
O360        C362   1.265       .  A
C361        O363   1.270       .  A
C361        C933   1.442       .  S
C362        C380   1.460   1_545  S
C364        C849   1.441       .  S
Fe365       O381   2.068       .  S
Fe365       O371   2.069       .  S
Fe365       O378   2.051       .  S
Fe365       O370   2.051       .  S
Fe365       O376   1.980       .  S
Fe366       O369   2.069       .  S
Fe366       O373   2.068       .  S
Fe366       O377   2.052       .  S
Fe366       O382   2.051       .  S
Fe366       O376   1.980       .  S
Fe367       O385   2.069       .  S
Fe367       O372   2.051       .  S
Fe367       O379   2.069       .  S
Fe367       O368   2.052       .  S
Fe367       O376   1.980       .  S
O368        C375   1.265       .  A
O369        C383   1.269       .  A
O370        C375   1.265       .  A
O371        C374   1.269       .  A
O372        C384   1.265       .  A
O373        C386   1.269       .  A
C374        O379   1.269       .  A
C374        C824   1.441       .  S
O377        C380   1.265       .  A
O378        C380   1.265       .  A
O381        C386   1.269       .  A
O382        C384   1.265       .  A
C383        O385   1.269       .  A
C383        C816   1.441       .  S
C386        C936   1.440       .  S
C387        C388   1.353       .  D
C387        C800   1.456       .  S
C387        C803   1.455       .  S
C388        C789   1.456       .  S
C388        C792   1.455       .  S
C389        C390   1.353       .  D
C389        C785   1.454       .  S
C389        C787   1.457       .  S
C390        C781   1.457       .  S
C390        C783   1.454       .  S
C391        C392   1.352       .  D
C391        C793   1.456       .  S
C391        C798   1.455       .  S
C392        C777   1.455       .  S
C392        C779   1.456       .  S
Fe393       O409   2.069       .  S
Fe393       O399   2.069       .  S
Fe393       O406   2.051       .  S
Fe393       O398   2.051       .  S
Fe393       O404   1.980       .  S
Fe394       O397   2.070       .  S
Fe394       O401   2.069       .  S
Fe394       O405   2.052       .  S
Fe394       O410   2.051       .  S
Fe394       O404   1.980       .  S
Fe395       O413   2.070       .  S
Fe395       O400   2.052       .  S
Fe395       O407   2.070       .  S
Fe395       O396   2.053       .  S
Fe395       O404   1.979       .  S
O396        C403   1.266       .  A
O397        C411   1.269       .  A
O398        C403   1.265       .  A
O399        C402   1.269       .  A
O400        C412   1.266       .  A
O401        C414   1.269       .  A
C402        O407   1.269       .  A
C402        C894   1.441       .  S
C403        C430   1.460   1_554  S
O405        C408   1.265       .  A
O406        C408   1.265       .  A
C408        C456   1.459       .  S
O409        C414   1.269       .  A
O410        C412   1.265       .  A
C411        O413   1.270       .  A
C411        C776   1.442       .  S
C412        C518   1.459       .  S
C414        C812   1.440       .  S
Fe415       O431   2.070       .  S
Fe415       O421   2.070       .  S
Fe415       O428   2.052       .  S
Fe415       O420   2.051       .  S
Fe415       O426   1.980       .  S
Fe416       O419   2.070       .  S
Fe416       O423   2.071       .  S
Fe416       O427   2.052       .  S
Fe416       O432   2.053       .  S
Fe416       O426   1.980       .  S
Fe417       O435   2.070       .  S
Fe417       O422   2.051       .  S
Fe417       O429   2.069       .  S
Fe417       O418   2.052       .  S
Fe417       O426   1.980       .  S
O418        C425   1.266       .  A
O419        C433   1.270       .  A
O420        C425   1.265       .  A
O421        C424   1.270       .  A
O422        C434   1.265       .  A
O423        C436   1.270       .  A
C424        O429   1.269       .  A
C424        C826   1.441       .  S
C425        C478   1.460       .  S
O427        C430   1.265       .  A
O428        C430   1.266       .  A
O431        C436   1.269       .  A
O432        C434   1.266       .  A
C433        O435   1.270       .  A
C433        C774   1.442       .  S
C434        C491   1.459       .  S
C436        C896   1.442       .  S
Fe437       O453   2.068       .  S
Fe437       O443   2.069       .  S
Fe437       O450   2.052       .  S
Fe437       O442   2.051       .  S
Fe437       O448   1.980       .  S
Fe438       O441   2.071       .  S
Fe438       O445   2.068       .  S
Fe438       O449   2.053       .  S
Fe438       O454   2.050       .  S
Fe438       O448   1.980       .  S
Fe439       O457   2.071       .  S
Fe439       O444   2.053       .  S
Fe439       O451   2.071       .  S
Fe439       O440   2.052       .  S
Fe439       O448   1.980       .  S
O440        C447   1.266       .  A
O441        C455   1.270       .  A
O442        C447   1.265       .  A
O443        C446   1.269       .  A
O444        C456   1.266       .  A
O445        C458   1.269       .  A
C446        O451   1.270       .  A
C446        C902   1.442       .  S
C447        C474   1.459   1_554  S
O449        C452   1.265       .  A
O450        C452   1.265       .  A
C452        C566   1.460       .  S
O453        C458   1.269       .  A
O454        C456   1.265       .  A
C455        O457   1.269       .  A
C455        C808   1.443       .  S
C458        C841   1.439       .  S
Fe459       O475   2.069       .  S
Fe459       O465   2.068       .  S
Fe459       O472   2.051       .  S
Fe459       O464   2.051       .  S
Fe459       O470   1.980       .  S
Fe460       O463   2.069       .  S
Fe460       O467   2.069       .  S
Fe460       O471   2.053       .  S
Fe460       O476   2.052       .  S
Fe460       O470   1.979       .  S
Fe461       O479   2.069       .  S
Fe461       O466   2.052       .  S
Fe461       O473   2.069       .  S
Fe461       O462   2.052       .  S
Fe461       O470   1.980       .  S
O462        C469   1.265       .  A
O463        C477   1.269       .  A
O464        C469   1.265       .  A
O465        C468   1.269       .  A
O466        C478   1.265       .  A
O467        C480   1.269       .  A
C468        O473   1.270       .  A
C468        C784   1.439       .  S
C469        C535   1.459       .  S
O471        C474   1.266       .  A
O472        C474   1.265       .  A
O475        C480   1.269       .  A
O476        C478   1.266       .  A
C477        O479   1.269       .  A
C477        C822   1.441       .  S
C480        C904   1.441       .  S
Fe481       O497   2.069       .  S
Fe481       O487   2.069       .  S
Fe481       O494   2.051       .  S
Fe481       O486   2.052       .  S
Fe481       O492   1.980       .  S
Fe482       O485   2.070       .  S
Fe482       O489   2.069       .  S
Fe482       O493   2.053       .  S
Fe482       O498   2.052       .  S
Fe482       O492   1.980       .  S
Fe483       O501   2.069       .  S
Fe483       O488   2.053       .  S
Fe483       O495   2.069       .  S
Fe483       O484   2.052       .  S
Fe483       O492   1.980       .  S
O484        C491   1.266       .  A
O485        C499   1.270       .  A
O486        C491   1.265       .  A
O487        C490   1.269       .  A
O488        C500   1.266       .  A
O489        C502   1.269       .  A
C490        O495   1.270       .  A
C490        C771   1.441       .  S
O493        C496   1.266       .  A
O494        C496   1.265       .  A
C496        C513   1.460   1_556  S
O497        C502   1.269       .  A
O498        C500   1.266       .  A
C499        O501   1.269       .  A
C499        C780   1.442       .  S
C500        C540   1.460       .  S
C502        C911   1.441       .  S
Fe503       O519   2.069       .  S
Fe503       O509   2.069       .  S
Fe503       O516   2.052       .  S
Fe503       O508   2.052       .  S
Fe503       O514   1.980       .  S
Fe504       O507   2.069       .  S
Fe504       O511   2.068       .  S
Fe504       O515   2.052       .  S
Fe504       O520   2.051       .  S
Fe504       O514   1.980       .  S
Fe505       O523   2.070       .  S
Fe505       O510   2.052       .  S
Fe505       O517   2.070       .  S
Fe505       O506   2.052       .  S
Fe505       O514   1.980       .  S
O506        C513   1.266       .  A
O507        C521   1.269       .  A
O508        C513   1.266       .  A
O509        C512   1.269       .  A
O510        C522   1.265       .  A
O511        C524   1.269       .  A
C512        O517   1.269       .  A
C512        C910   1.441       .  S
O515        C518   1.265       .  A
O516        C518   1.265       .  A
O519        C524   1.269       .  A
O520        C522   1.265       .  A
C521        O523   1.270       .  A
C521        C857   1.441       .  S
C522        C562   1.459       .  S
C524        C770   1.440       .  S
Fe525       O541   2.069       .  S
Fe525       O531   2.070       .  S
Fe525       O538   2.053       .  S
Fe525       O530   2.051       .  S
Fe525       O536   1.980       .  S
Fe526       O529   2.068       .  S
Fe526       O533   2.068       .  S
Fe526       O537   2.052       .  S
Fe526       O542   2.051       .  S
Fe526       O536   1.980       .  S
Fe527       O545   2.070       .  S
Fe527       O532   2.053       .  S
Fe527       O539   2.071       .  S
Fe527       O528   2.052       .  S
Fe527       O536   1.980       .  S
O528        C535   1.266       .  A
O529        C543   1.269       .  A
O530        C535   1.266       .  A
O531        C534   1.269       .  A
O532        C544   1.265       .  A
O533        C546   1.269       .  A
C534        O539   1.270       .  A
C534        C782   1.443       .  S
O537        C540   1.265       .  A
O538        C540   1.266       .  A
O541        C546   1.269       .  A
O542        C544   1.265       .  A
C543        O545   1.270       .  A
C543        C836   1.440       .  S
C544        C557   1.460   1_556  S
C546        C778   1.440       .  S
Fe547       O563   2.069       .  S
Fe547       O553   2.069       .  S
Fe547       O560   2.052       .  S
Fe547       O552   2.052       .  S
Fe547       O558   1.980       .  S
Fe548       O551   2.070       .  S
Fe548       O555   2.070       .  S
Fe548       O559   2.052       .  S
Fe548       O564   2.053       .  S
Fe548       O558   1.980       .  S
Fe549       O567   2.070       .  S
Fe549       O554   2.052       .  S
Fe549       O561   2.070       .  S
Fe549       O550   2.053       .  S
Fe549       O558   1.980       .  S
O550        C557   1.266       .  A
O551        C565   1.269       .  A
O552        C557   1.266       .  A
O553        C556   1.269       .  A
O554        C566   1.266       .  A
O555        C568   1.270       .  A
C556        O561   1.269       .  A
C556        C833   1.441       .  S
O559        C562   1.265       .  A
O560        C562   1.265       .  A
O563        C568   1.269       .  A
O564        C566   1.266       .  A
C565        O567   1.270       .  A
C565        C837   1.442       .  S
C568        C854   1.441       .  S
C569        C570   1.353       .  D
C569        C772   1.455       .  S
C569        C773   1.457       .  S
C570        C765   1.457       .  S
C570        C768   1.455       .  S
C571        C572   1.353       .  D
C571        C862   1.457   1_655  S
C571        C869   1.455       .  S
C572        C762   1.455   1_655  S
C572        C764   1.457       .  S
C573        C574   1.353       .  D
C573        C796   1.456       .  S
C573        C802   1.455       .  S
C574        C757   1.456       .  S
C574        C759   1.455       .  S
C575        C576   1.353       .  D
C575        C769   1.455       .  S
C575        C775   1.456       .  S
C576        C753   1.457       .  S
C576        C756   1.455       .  S
Fe577       O593   2.069       .  S
Fe577       O583   2.070       .  S
Fe577       O590   2.052       .  S
Fe577       O582   2.051       .  S
Fe577       O588   1.980       .  S
Fe578       O581   2.070       .  S
Fe578       O585   2.069       .  S
Fe578       O589   2.053       .  S
Fe578       O594   2.052       .  S
Fe578       O588   1.980       .  S
Fe579       O597   2.070       .  S
Fe579       O584   2.052       .  S
Fe579       O591   2.069       .  S
Fe579       O580   2.053       .  S
Fe579       O588   1.980       .  S
O580        C587   1.266       .  A
O581        C595   1.269       .  A
O582        C587   1.265       .  A
O583        C586   1.270       .  A
O584        C596   1.266       .  A
O585        C598   1.269       .  A
C586        O591   1.270       .  A
C586        C926   1.441       .  S
C587        C618   1.460   1_455  S
O589        C592   1.266       .  A
O590        C592   1.265       .  A
C592        C653   1.460       .  S
O593        C598   1.269       .  A
O594        C596   1.266       .  A
C595        O597   1.270       .  A
C595        C843   1.442       .  S
C596        C702   1.459       .  S
C598        C818   1.441       .  S
Fe599       O615   2.069       .  S
Fe599       O605   2.068       .  S
Fe599       O612   2.051       .  S
Fe599       O604   2.052       .  S
Fe599       O610   1.980       .  S
Fe600       O603   2.068       .  S
Fe600       O607   2.070       .  S
Fe600       O611   2.051       .  S
Fe600       O616   2.053       .  S
Fe600       O610   1.980       .  S
Fe601       O619   2.069       .  S
Fe601       O606   2.051       .  S
Fe601       O613   2.068       .  S
Fe601       O602   2.052       .  S
Fe601       O610   1.980       .  S
O602        C609   1.265       .  A
O603        C617   1.269       .  A
O604        C609   1.266       .  A
O605        C608   1.269       .  A
O606        C618   1.265       .  A
O607        C620   1.269       .  A
C608        O613   1.269       .  A
C608        C755   1.440       .  S
C609        C684   1.460       .  S
O611        C614   1.265       .  A
O612        C614   1.265       .  A
C614        C636   1.459       .  S
O615        C620   1.269       .  A
O616        C618   1.266       .  A
C617        O619   1.270       .  A
C617        C927   1.440       .  S
C620        C790   1.441       .  S
Fe621       O637   2.069       .  S
Fe621       O627   2.067       .  S
Fe621       O634   2.050       .  S
Fe621       O626   2.053       .  S
Fe621       O632   1.979       .  S
Fe622       O625   2.069       .  S
Fe622       O629   2.069       .  S
Fe622       O633   2.052       .  S
Fe622       O638   2.052       .  S
Fe622       O632   1.980       .  S
Fe623       O641   2.068       .  S
Fe623       O628   2.051       .  S
Fe623       O635   2.068       .  S
Fe623       O624   2.051       .  S
Fe623       O632   1.980       .  S
O624        C631   1.265       .  A
O625        C639   1.269       .  A
O626        C631   1.266       .  A
O627        C630   1.269       .  A
O628        C640   1.265       .  A
O629        C642   1.269       .  A
C630        O635   1.269       .  A
C630        C880   1.439       .  S
C631        C658   1.460   1_655  S
O633        C636   1.265       .  A
O634        C636   1.265       .  A
O637        C642   1.269       .  A
O638        C640   1.265       .  A
C639        O641   1.269       .  A
C639        C767   1.440       .  S
C640        C719   1.459       .  S
C642        C791   1.440       .  S
Fe643       O659   2.071       .  S
Fe643       O649   2.069       .  S
Fe643       O656   2.051       .  S
Fe643       O648   2.053       .  S
Fe643       O654   1.980       .  S
Fe644       O647   2.071       .  S
Fe644       O651   2.070       .  S
Fe644       O655   2.053       .  S
Fe644       O660   2.052       .  S
Fe644       O654   1.980       .  S
Fe645       O663   2.071       .  S
Fe645       O650   2.052       .  S
Fe645       O657   2.070       .  S
Fe645       O646   2.053       .  S
Fe645       O654   1.980       .  S
O646        C653   1.265       .  A
O647        C661   1.270       .  A
O648        C653   1.265       .  A
O649        C652   1.269       .  A
O650        C662   1.266       .  A
O651        C664   1.270       .  A
C652        O657   1.270       .  A
C652        C820   1.441       .  S
O655        C658   1.266       .  A
O656        C658   1.265       .  A
O659        C664   1.270       .  A
O660        C662   1.266       .  A
C661        O663   1.270       .  A
C661        C788   1.443       .  S
C662        C746   1.460       .  S
C664        C878   1.442       .  S
Fe665       O681   2.071       .  S
Fe665       O671   2.070       .  S
Fe665       O678   2.052       .  S
Fe665       O670   2.053       .  S
Fe665       O676   1.980       .  S
Fe666       O669   2.071       .  S
Fe666       O673   2.070       .  S
Fe666       O677   2.054       .  S
Fe666       O682   2.052       .  S
Fe666       O676   1.980       .  S
Fe667       O685   2.070       .  S
Fe667       O672   2.053       .  S
Fe667       O679   2.071       .  S
Fe667       O668   2.051       .  S
Fe667       O676   1.980       .  S
O668        C675   1.265       .  A
O669        C683   1.270       .  A
O670        C675   1.266       .  A
O671        C674   1.269       .  A
O672        C684   1.266       .  A
O673        C686   1.269       .  A
C674        O679   1.270       .  A
C674        C763   1.442       .  S
C675        C697   1.459   1_655  S
O677        C680   1.266       .  A
O678        C680   1.266       .  A
C680        C724   1.460       .  S
O681        C686   1.270       .  A
O682        C684   1.265       .  A
C683        O685   1.270       .  A
C683        C754   1.442       .  S
C686        C758   1.442       .  S
Fe687       O703   2.068       .  S
Fe687       O693   2.068       .  S
Fe687       O700   2.051       .  S
Fe687       O692   2.051       .  S
Fe687       O698   1.980       .  S
Fe688       O691   2.069       .  S
Fe688       O695   2.068       .  S
Fe688       O699   2.052       .  S
Fe688       O704   2.051       .  S
Fe688       O698   1.980       .  S
Fe689       O707   2.070       .  S
Fe689       O694   2.051       .  S
Fe689       O701   2.069       .  S
Fe689       O690   2.052       .  S
Fe689       O698   1.980       .  S
O690        C697   1.265       .  A
O691        C705   1.269       .  A
O692        C697   1.265       .  A
O693        C696   1.269       .  A
O694        C706   1.265       .  A
O695        C708   1.269       .  A
C696        O701   1.269       .  A
C696        C761   1.440       .  S
O699        C702   1.265       .  A
O700        C702   1.265       .  A
O703        C708   1.269       .  A
O704        C706   1.266       .  A
C705        O707   1.269       .  A
C705        C847   1.441       .  S
C706        C741   1.458       .  S
C708        C840   1.439       .  S
Fe709       O725   2.069       .  S
Fe709       O715   2.070       .  S
Fe709       O722   2.053       .  S
Fe709       O714   2.050       .  S
Fe709       O720   1.980       .  S
Fe710       O713   2.069       .  S
Fe710       O717   2.068       .  S
Fe710       O721   2.052       .  S
Fe710       O726   2.051       .  S
Fe710       O720   1.980       .  S
Fe711       O729   2.071       .  S
Fe711       O716   2.052       .  S
Fe711       O723   2.071       .  S
Fe711       O712   2.052       .  S
Fe711       O720   1.980       .  S
O712        C719   1.266       .  A
O713        C727   1.269       .  A
O714        C719   1.265       .  A
O715        C718   1.270       .  A
O716        C728   1.265       .  A
O717        C730   1.269       .  A
C718        O723   1.270       .  A
C718        C766   1.442       .  S
O721        C724   1.266       .  A
O722        C724   1.265       .  A
O725        C730   1.269       .  A
O726        C728   1.265       .  A
C727        O729   1.270       .  A
C727        C943   1.442       .  S
C728        C750   1.459   1_655  S
C730        C760   1.440       .  S
Fe731       O747   2.068       .  S
Fe731       O737   2.069       .  S
Fe731       O744   2.052       .  S
Fe731       O736   2.050       .  S
Fe731       O742   1.980       .  S
Fe732       O735   2.068       .  S
Fe732       O739   2.068       .  S
Fe732       O743   2.052       .  S
Fe732       O748   2.051       .  S
Fe732       O742   1.980       .  S
Fe733       O751   2.070       .  S
Fe733       O738   2.052       .  S
Fe733       O745   2.069       .  S
Fe733       O734   2.052       .  S
Fe733       O742   1.979       .  S
O734        C741   1.266       .  A
O735        C749   1.269       .  A
O736        C741   1.265       .  A
O737        C740   1.269       .  A
O738        C750   1.266       .  A
O739        C752   1.269       .  A
C740        O745   1.269       .  A
C740        C852   1.441       .  S
O743        C746   1.265       .  A
O744        C746   1.265       .  A
O747        C752   1.269       .  A
O748        C750   1.265       .  A
C749        O751   1.270       .  A
C749        C941   1.441       .  S
C752        C786   1.439       .  S
C753        C754   1.212       .  T
C755        C756   1.210       .  T
C757        C758   1.211       .  T
C759        C760   1.211       .  T
C761        C762   1.210       .  T
C763        C764   1.212       .  T
C765        C766   1.212       .  T
C767        C768   1.211       .  T
C769        C770   1.210       .  T
C771        C772   1.211       .  T
C773        C774   1.212       .  T
C775        C776   1.211       .  T
C777        C778   1.210       .  T
C779        C780   1.211       .  T
C781        C782   1.212       .  T
C783        C784   1.210       .  T
C785        C786   1.210       .  T
C787        C788   1.212       .  T
C789        C790   1.211       .  T
C791        C792   1.211       .  T
C793        C794   1.211       .  T
C795        C796   1.211       .  T
C797        C798   1.210       .  T
C799        C800   1.211       .  T
C801        C802   1.211       .  T
C803        C804   1.211       .  T
C805        C806   1.210       .  T
C807        C808   1.212       .  T
C809        C810   1.212       .  T
C811        C812   1.210       .  T
C813        C814   1.211       .  T
C815        C816   1.211       .  T
C817        C818   1.211       .  T
C819        C820   1.211       .  T
C821        C822   1.211       .  T
C823        C824   1.211       .  T
C825        C826   1.211       .  T
C827        C828   1.211       .  T
C829        C830   1.212       .  T
C831        C832   1.210       .  T
C833        C834   1.211       .  T
C835        C836   1.211       .  T
C837        C838   1.212       .  T
C839        C840   1.210       .  T
C841        C842   1.210       .  T
C843        C844   1.212       .  T
C845        C846   1.211       .  T
C847        C848   1.211       .  T
C849        C850   1.211       .  T
C851        C852   1.211       .  T
C853        C854   1.211       .  T
C855        C856   1.211       .  T
C857        C858   1.211       .  T
C859        C860   1.211       .  T
C861        C862   1.212       .  T
C863        C864   1.210       .  T
C865        C866   1.210       .  T
C867        C868   1.211       .  T
C869        C870   1.210       .  T
C871        C872   1.212       .  T
C873        C874   1.210       .  T
C875        C876   1.212       .  T
C877        C878   1.212       .  T
C879        C880   1.210       .  T
C881        C882   1.211       .  T
C883        C884   1.210       .  T
C885        C886   1.210       .  T
C887        C888   1.211       .  T
C889        C890   1.211       .  T
C891        C892   1.211       .  T
C893        C894   1.211       .  T
C895        C896   1.211       .  T
C897        C898   1.211       .  T
C899        C900   1.211       .  T
C901        C902   1.211       .  T
C903        C904   1.211       .  T
C905        C906   1.211       .  T
C907        C908   1.211       .  T
C909        C910   1.211       .  T
C911        C912   1.211       .  T
C913        C914   1.212       .  T
C915        C916   1.210       .  T
C917        C918   1.210       .  T
C919        C920   1.212       .  T
C921        C922   1.211       .  T
C923        C924   1.211       .  T
C925        C926   1.211       .  T
C927        C928   1.211       .  T
C929        C930   1.210       .  T
C931        C932   1.211       .  T
C933        C934   1.212       .  T
C935        C936   1.210       .  T
C937        C938   1.211       .  T
C939        C940   1.211       .  T
C941        C942   1.211       .  T
C943        C944   1.211       .  T
