geometry optimzed in LAMMPS
_audit_creation_date              2020-12-01 
_audit_creation_method            'lammps2cif' 
_symmetry_space_group_name_H-M    'P1' 
_symmetry_Int_Tables_number       1 
_symmetry_cell_setting            triclinic 
loop_ 
_symmetry_equiv_pos_as_xyz 
  x,y,z 
_cell_length_a                    35.96423005 
_cell_length_b                    38.02697632210104 
_cell_length_c                    38.52433935403472 
_cell_angle_alpha                 94.68645129811219 
_cell_angle_beta                  90.76846383241299 
_cell_angle_gamma                 89.06330228359504 
loop_ 
_atom_site_label 
_atom_site_type_symbol 
_atom_site_fract_x 
_atom_site_fract_y 
_atom_site_fract_z 
_atom_site_charge 
C1          C  0.08477706  0.09700130  0.10077983     0.86700
C2          C  0.11187541  0.11743414  0.07979710    -0.53600
C3          C  0.13479007  0.13913154  0.09883607     0.09600
C4          C  0.12863096  0.13836144  0.13892063     0.20500
C5          C  0.10882902  0.07771757  0.12720329    -0.54300
C6          C  0.13316558  0.09809322  0.14640968     0.09700
C7          C  0.06332630  0.12615746  0.12412381    -0.53800
C8          C  0.08603219  0.14874707  0.14425991     0.10300
H9          H  0.11216365  0.11563328  0.05148789     0.14800
H10         H  0.14785673  0.15609052  0.15454161     0.00500
H11         H  0.10716444  0.04978340  0.13007427     0.15100
H12         H  0.03341072  0.12954154  0.12377306     0.14900
C13         C  0.07383848  0.18468642  0.16502335     0.30200
C14         C  0.07377861  0.25141462  0.20046551     0.30200
C15         C  0.09013753  0.21423356  0.14655210    -0.06000
C16         C  0.03400538  0.20108873  0.17349246    -0.06800
C17         C  0.09158259  0.18782746  0.20112110    -0.06700
C18         C  0.09059896  0.24790691  0.16439753    -0.06000
C19         C  0.03379238  0.23538117  0.19213705    -0.06800
C20         C  0.09101199  0.22157328  0.21896504    -0.06700
C21         C  0.08469928  0.27115757  0.13945519    -0.32100
N22         N  0.08198014  0.25372207  0.10778032     0.14400
C23         C  0.08300558  0.21922008  0.11227205    -0.32100
H24         H  0.07332335  0.19905835  0.09300858     0.16400
C25         C  0.49648098  0.24395822  0.19855453    -0.31000
N26         N  0.47453702  0.21725392  0.18425357     0.13200
C27         C  0.49708635  0.19130897  0.16895614    -0.31000
C28         C  0.08397647  0.21678792  0.25309326    -0.31300
N29         N  0.08280884  0.18236161  0.25758670     0.13700
H30         H  0.07380207  0.23717219  0.27194944     0.16300
C31         C  0.08580540  0.16480271  0.22602739    -0.31300
H32         H  0.07617879  0.13837159  0.22056352     0.16300
H33         H  0.48732868  0.16673928  0.15618254     0.16300
H34         H  0.07559737  0.29805099  0.14467489     0.16400
H35         H  0.48608620  0.26790178  0.21244002     0.16300
C36         C  0.08685480  0.33991956  0.26336425     0.86700
C37         C  0.11372908  0.31903015  0.28540884    -0.53600
C38         C  0.13590346  0.29577146  0.26719403     0.09600
C39         C  0.12955368  0.29597502  0.22693912     0.20500
C40         C  0.11019552  0.35761173  0.23702422    -0.54300
C41         C  0.13433277  0.33602300  0.21900652     0.09700
C42         C  0.06466996  0.31097969  0.24048650    -0.53800
C43         C  0.08677304  0.28705744  0.22113454     0.10300
H44         H  0.11419925  0.32152749  0.31373146     0.14800
H45         H  0.14856389  0.27731964  0.21193423     0.00500
H46         H  0.10824828  0.38540931  0.23357664     0.15100
H47         H  0.03468199  0.30876460  0.24058523     0.14900
C48         C  0.22689923  0.06918521  0.20867278     0.30200
C49         C  0.16508944  0.08227965  0.16874525     0.30200
C50         C  0.23314152  0.08925174  0.17686344    -0.06000
C51         C  0.20656151  0.03610178  0.19378489    -0.06800
C52         C  0.19516184  0.08961853  0.22722831    -0.06700
C53         C  0.20232409  0.09596157  0.15726241    -0.06000
C54         C  0.17456582  0.04179539  0.17286260    -0.06800
C55         C  0.16341447  0.09619845  0.20708094    -0.06700
C56         C  0.21494408  0.10790459  0.12727687    -0.32100
N57         N  0.25224852  0.11369888  0.12958823     0.14400
C58         C  0.26363102  0.09830621  0.15852736    -0.32100
H59         H  0.29154052  0.08986452  0.16390033     0.16400
C60         C  0.15804723  0.00847332  0.16776545    -0.31000
N61         N  0.17828685  0.48474854  0.18557280     0.13200
C62         C  0.20734175  0.00164519  0.20149309    -0.31000
C63         C  0.13418516  0.09525199  0.22965789    -0.31300
N64         N  0.14669877  0.09242898  0.26255449     0.13700
H65         H  0.10564338  0.09093941  0.22188380     0.16300
C66         C  0.18347219  0.08629713  0.26047307    -0.31300
H67         H  0.20009313  0.07599564  0.28096383     0.16300
H68         H  0.22766204  0.48894742  0.21729096     0.16300
H69         H  0.19874307  0.10285752  0.10411868     0.16400
H70         H  0.13336925  0.50182641  0.15250572     0.16300
C71         C  0.32887545  0.13476323  0.06652146     0.86700
C72         C  0.34727557  0.15940127  0.09551815    -0.53600
C73         C  0.32328797  0.17824702  0.11694147     0.09600
C74         C  0.28123201  0.17174233  0.10513310     0.20500
C75         C  0.30105885  0.11244315  0.08547429    -0.54300
C76         C  0.27623224  0.13101025  0.10591131     0.09700
C77         C  0.30329260  0.15915182  0.04551406    -0.53800
C78         C  0.27758799  0.17861433  0.06494218     0.10300
H79         H  0.37700449  0.15918591  0.10042625     0.14800
H80         H  0.26097167  0.18714827  0.12199010     0.00500
H81         H  0.30190011  0.08378078  0.08389824     0.15100
H82         H  0.30319499  0.15999690  0.01774377     0.14900
C83         C  0.09152801  0.13383497  0.33894084     0.86700
C84         C  0.07275474  0.15865279  0.31365809    -0.53600
C85         C  0.09548974  0.16779515  0.28850465     0.09600
C86         C  0.13513436  0.15458934  0.29167888     0.20500
C87         C  0.10992405  0.10362639  0.31543691    -0.54300
C88         C  0.13200317  0.11482084  0.29079335     0.09700
C89         C  0.12510728  0.15610180  0.35445115    -0.53800
C90         C  0.14793070  0.16734482  0.32883929     0.10300
H91         H  0.04346018  0.16606729  0.31390652     0.14800
H92         H  0.15289319  0.16295669  0.27051952     0.00500
H93         H  0.10401597  0.07583154  0.31676404     0.15100
H94         H  0.12923940  0.16332860  0.38188587     0.14900
C95         C  0.33561415  0.23229499  0.21863172     0.30200
C96         C  0.33519233  0.19772650  0.15289649     0.30200
C97         C  0.31909289  0.25241914  0.18940871    -0.06000
C98         C  0.37558268  0.22365243  0.20303625    -0.06800
C99         C  0.31870144  0.19585279  0.21503039    -0.06700
C100        C  0.31844198  0.23461229  0.15607765    -0.06000
C101        C  0.37533874  0.20546811  0.16896804    -0.06800
C102        C  0.31880417  0.17824755  0.18169721    -0.06700
C103        C  0.32667804  0.25940103  0.13339221    -0.32100
N104        N  0.33131018  0.29136612  0.15030543     0.14400
C105        C  0.32841258  0.28675034  0.18440389    -0.32100
H106        H  0.33894946  0.30541253  0.20471084     0.16400
C107        C  0.41239059  0.20124298  0.15920695    -0.31000
N108        N  0.43483398  0.21627292  0.18508857     0.13200
C109        C  0.41279019  0.23008603  0.21167467    -0.31000
C110        C  0.32698940  0.14338430  0.18638146    -0.31300
N111        N  0.32952235  0.13828791  0.22042103     0.13700
H112        H  0.33692302  0.12435490  0.16609531     0.16300
C113        C  0.32613074  0.17035833  0.23764497    -0.31300
H114        H  0.33603424  0.17577066  0.26392232     0.16300
H115        H  0.42312669  0.24377184  0.23546208     0.16300
H116        H  0.33622274  0.25316322  0.10729121     0.16400
H117        H  0.42237278  0.18904552  0.13469449     0.16300
C118        C  0.31541218  0.37445646  0.10254808     0.86700
C119        C  0.29852405  0.34960965  0.07294028    -0.53600
C120        C  0.27872813  0.32338186  0.08424075     0.09600
C121        C  0.27689987  0.32334166  0.12354930     0.20500
C122        C  0.28259711  0.38689464  0.12626813    -0.54300
C123        C  0.26217208  0.35987344  0.13694902     0.09700
C124        C  0.33841962  0.34863974  0.12440424    -0.53800
C125        C  0.31727942  0.32214951  0.13525994     0.10300
H126        H  0.30297220  0.35179670  0.04534736     0.14800
H127        H  0.26058852  0.30100460  0.13195742     0.00500
H128        H  0.27721837  0.41439667  0.13375343     0.15100
H129        H  0.36798898  0.34877296  0.12925923     0.14900
C130        C  0.31512407  0.05581912  0.26806649     0.86700
C131        C  0.29612901  0.08018747  0.29672611    -0.53600
C132        C  0.27662679  0.10674560  0.28467947     0.09600
C133        C  0.27522953  0.10672170  0.24541011     0.20500
C134        C  0.28272950  0.04262878  0.24344757    -0.54300
C135        C  0.26143395  0.06997418  0.23192625     0.09700
C136        C  0.33691644  0.08080220  0.24566588    -0.53800
C137        C  0.31556769  0.10767125  0.23477928     0.10300
H138        H  0.29962286  0.07794265  0.32455139     0.14800
H139        H  0.25852701  0.12922045  0.23648551     0.00500
H140        H  0.27824189  0.01524237  0.23531421     0.15100
H141        H  0.36646459  0.07859348  0.24039088     0.14900
C142        C  0.16629131  0.35066319  0.19784348     0.30200
C143        C  0.22783030  0.36157517  0.15941520     0.30200
C144        C  0.16459217  0.33629101  0.15985472    -0.06000
C145        C  0.17538028  0.39082490  0.19347112    -0.06800
C146        C  0.20337310  0.33626867  0.21064430    -0.06700
C147        C  0.19622162  0.34177768  0.14025099    -0.06000
C148        C  0.20737179  0.39549204  0.17335253    -0.06800
C149        C  0.23422972  0.34179300  0.19171516    -0.06700
C150        C  0.18400474  0.34608265  0.10700193    -0.32100
N151        N  0.14710051  0.34165766  0.10458860     0.14400
C152        C  0.13507303  0.33866744  0.13717131    -0.32100
H153        H  0.10669079  0.34394621  0.14477949     0.16400
C154        C  0.20771953  0.42985427  0.16511353    -0.31000
N155        N  0.17837393  0.44752023  0.17990851     0.13200
C156        C  0.15832022  0.42443914  0.19740405    -0.31000
C157        C  0.26463917  0.33254185  0.21130217    -0.31300
N158        N  0.25304924  0.31819112  0.24034409     0.13700
H159        H  0.29252350  0.34027726  0.20671839     0.16300
C160        C  0.21577250  0.32496738  0.24139708    -0.31300
H161        H  0.19934903  0.33082377  0.26427914     0.16300
H162        H  0.13323110  0.43176768  0.21141039     0.16300
H163        H  0.20031089  0.35633559  0.08690726     0.16400
H164        H  0.22779793  0.44209929  0.14969167     0.16300
C165        C  0.09161059  0.30260286  0.02722438     0.86700
C166        C  0.07250375  0.27815362  0.05167916    -0.53600
C167        C  0.09507414  0.26805184  0.07734991     0.09600
C168        C  0.13489220  0.28007942  0.07541546     0.20500
C169        C  0.10949549  0.33205447  0.05152658    -0.54300
C170        C  0.13178400  0.31994036  0.07633531     0.09700
C171        C  0.12534524  0.27932785  0.01260588    -0.53800
C172        C  0.14812063  0.26727148  0.03865298     0.10300
H173        H  0.04364815  0.27030633  0.05008769     0.14800
H174        H  0.15254435  0.27106962  0.09699042     0.00500
H175        H  0.10356494  0.36004854  0.05028292     0.15100
H176        H  0.12957957  0.27230243  0.98519447     0.14900
C177        C  0.32815789  0.29378642  0.30634760     0.86700
C178        C  0.34739499  0.26955992  0.27736014    -0.53600
C179        C  0.32371483  0.25179936  0.25453177     0.09600
C180        C  0.28149887  0.25894539  0.26505787     0.20500
C181        C  0.30067372  0.31736378  0.28670375    -0.54300
C182        C  0.27652096  0.29984883  0.26472720     0.09700
C183        C  0.30244008  0.26971091  0.32559507    -0.53800
C184        C  0.27733921  0.25137169  0.30499951     0.10300
H185        H  0.37721936  0.26916297  0.27368769     0.14800
H186        H  0.26150347  0.24436767  0.24725716     0.00500
H187        H  0.30121335  0.34602239  0.28901294     0.15100
H188        H  0.30137006  0.26879542  0.35327032     0.14900
C189        C  0.24516954  0.20125417  0.04900539     0.30200
C190        C  0.18297690  0.24298132  0.03691828     0.30200
C191        C  0.24655813  0.23970709  0.06351070    -0.06000
C192        C  0.23553450  0.20651632  0.00928381    -0.06800
C193        C  0.20781524  0.18988454  0.06217048    -0.06700
C194        C  0.21503418  0.26077076  0.05726584    -0.06000
C195        C  0.20341638  0.22805081  0.00406443    -0.06800
C196        C  0.17697312  0.21026497  0.05618399    -0.06700
C197        C  0.22728196  0.29430500  0.05502826    -0.32100
N198        N  0.26392088  0.29545985  0.06184795     0.14400
C199        C  0.27607020  0.26202103  0.06414151    -0.32100
H200        H  0.30475630  0.25393028  0.06133864     0.16400
C201        C  0.20172641  0.23506808  0.46986201    -0.31000
N202        N  0.23065849  0.21869663  0.45290988     0.13200
C203        C  0.25137047  0.20085966  0.47616575    -0.31000
C204        C  0.14676732  0.19248717  0.06673300    -0.31300
N205        N  0.15849490  0.16338703  0.08215952     0.13700
H206        H  0.11870384  0.19817590  0.05917920     0.16300
C207        C  0.19546047  0.16019493  0.07513740    -0.31300
H208        H  0.21159230  0.13659134  0.07080440     0.16300
H209        H  0.27584336  0.18503767  0.46939635     0.16300
H210        H  0.21118464  0.31579547  0.04554373     0.16400
H211        H  0.18074000  0.25062138  0.45755811     0.16300
C212        C  0.24495200  0.22988875  0.32017521     0.30200
C213        C  0.18261121  0.19062621  0.33124656     0.30200
C214        C  0.24578853  0.19162618  0.30531874    -0.06000
C215        C  0.23575228  0.22469954  0.35980460    -0.06800
C216        C  0.20770826  0.24290963  0.30673425    -0.06700
C217        C  0.21416388  0.17180965  0.31112608    -0.06000
C218        C  0.20350857  0.20437531  0.36443006    -0.06800
C219        C  0.17668963  0.22377301  0.31219620    -0.06700
C220        C  0.22585955  0.13776738  0.31312094    -0.32100
N221        N  0.26230044  0.13524135  0.30664822     0.14400
C222        C  0.27496649  0.16813197  0.30477793    -0.32100
H223        H  0.30374671  0.17496382  0.30832853     0.16400
C224        C  0.20164869  0.19756756  0.39860575    -0.31000
N225        N  0.23064575  0.21295661  0.41618085     0.13200
C226        C  0.25152510  0.22995449  0.39334008    -0.31000
C227        C  0.14678458  0.24248328  0.30047458    -0.31300
N228        N  0.15902328  0.27079713  0.28482908     0.13700
H229        H  0.11863118  0.23795457  0.30724774     0.16300
C230        C  0.19591164  0.27260689  0.29269819    -0.31300
H231        H  0.21256508  0.29570729  0.29656379     0.16300
H232        H  0.27602243  0.24495305  0.40072449     0.16300
H233        H  0.20963049  0.11685497  0.32227387     0.16400
H234        H  0.18045792  0.18293000  0.41049608     0.16300
O235        O  0.48937738  0.00695111  0.98233078    -0.80000
O236        O  0.41376699  0.01328980  0.39010416    -0.80000
O237        O  0.99636568  0.02284792  0.42302634    -0.80000
O238        O  0.40600898  0.01004049  0.46964575    -0.79900
O239        O  0.48557493  0.00823179  0.36890221    -0.80100
O240        O  0.43091446  0.99289481  0.01898580    -0.80000
O241        O  0.36784784  0.98362286  0.40614307    -0.80000
O242        O  0.04446917  0.48682042  0.46264652    -0.80000
C243        C  0.02519345  0.00557494  0.48521857     1.09700
C244        C  0.38004416  0.00647493  0.38757855     1.09600
C245        C  0.99778432  0.03018704  0.39209811     1.09800
C246        C  0.41257849  0.01590880  0.50277152     1.09600
O247        O  0.41022459  0.43207787  0.98326889    -0.80000
O248        O  0.47850864  0.43539826  0.35811857    -0.80000
O249        O  0.01069748  0.42392831  0.44494487    -0.80000
O250        O  0.39488306  0.41611540  0.41488050    -0.79900
O251        O  0.40472179  0.43887184  0.36487414    -0.80000
O252        O  0.48273474  0.43310861  0.99444752    -0.80000
O253        O  0.35745279  0.45602722  0.46872819    -0.79900
O254        O  0.02743948  0.45466349  0.39017616    -0.80000
Co255      Co  0.44844242  0.47010411  0.47591456     1.51500
Co256      Co  0.44543321  0.47378866  0.37328166     1.51700
Co257      Co  0.00180466  0.47245909  0.43495639     1.51600
Co258      Co  0.40114507  0.46224856  0.44147220     1.51500
O259        O  0.45257586  0.46022250  0.42219430    -1.41900
C260        C  0.37587452  0.43880491  0.49004783     1.09700
C261        C  0.01263512  0.43375096  0.36607501     1.09800
C262        C  0.00390264  0.41394889  0.47425876     1.09700
C263        C  0.39560919  0.41313957  0.38179656     1.09700
C264        C  0.37305933  0.35192777  0.38120517    -0.12100
C265        C  0.38419286  0.37984914  0.36239011     0.04900
C266        C  0.38574650  0.37444986  0.32560815    -0.07400
C267        C  0.37281269  0.34306814  0.30894266    -0.08100
C268        C  0.35544246  0.31769377  0.32754829    -0.02700
C269        C  0.35934939  0.32077530  0.36439980     0.04100
N270        N  0.35248233  0.29240120  0.38540215     0.66700
H271        H  0.37481830  0.35418049  0.40940363     0.15600
H272        H  0.37238054  0.34039988  0.28068720     0.15300
N273        N  0.39895567  0.40069172  0.30438074     0.74400
O274        O  0.37705486  0.26853234  0.38721597    -0.39100
O275        O  0.32877942  0.29680452  0.40931281    -0.40600
O276        O  0.42923159  0.39529557  0.28847956    -0.39700
O277        O  0.37624177  0.42332395  0.29403258    -0.39800
C278        C  0.05486186  0.36907217  0.96609274    -0.12100
C279        C  0.02239852  0.38093551  0.98380601     0.04900
C280        C  0.00900207  0.36104424  0.00972752    -0.07400
C281        C  0.02921129  0.33173689  0.01929788    -0.08100
C282        C  0.06382282  0.32118780  0.00404908    -0.02700
C283        C  0.07582588  0.34011460  0.97621967     0.04100
N284        N  0.11081726  0.33264227  0.95995585     0.66700
H285        H  0.06556238  0.38372070  0.94550393     0.15600
H286        H  0.01905316  0.32024873  0.04195394     0.15300
N287        N  0.47656155  0.37176757  0.02887285     0.74400
O288        O  0.11150179  0.31481296  0.93086635    -0.39100
O289        O  0.13836657  0.35141644  0.96930883    -0.39000
O290        O  0.44682042  0.35501235  0.52298511    -0.39700
O291        O  0.48033393  0.39095041  0.05695113    -0.39800
C292        C  0.36869420  0.04972720  0.30642859    -0.12100
C293        C  0.33963163  0.03126624  0.28811321     0.04900
C294        C  0.32424983  0.00236200  0.30399070    -0.07400
C295        C  0.33654046  0.99461517  0.33733589    -0.08100
C296        C  0.36010855  0.01780673  0.35695222    -0.02700
C297        C  0.37309582  0.04769752  0.34217511     0.04100
N298        N  0.38672205  0.07765701  0.36392139     0.66700
H299        H  0.38064757  0.07239855  0.29596690     0.15600
H300        H  0.32689089  0.47103887  0.34819578     0.15300
N301        N  0.29495983  0.98181025  0.28780239     0.74400
O302        O  0.40112930  0.10327936  0.35045579    -0.39100
O303        O  0.37679959  0.08218177  0.39531734    -0.39000
O304        O  0.30277708  0.45247773  0.27161313    -0.39700
O305        O  0.26195486  0.98803013  0.29750737    -0.39800
C306        C  0.30946837  0.42227347  0.06276421    -0.12100
C307        C  0.33324841  0.40438523  0.08510099     0.04900
C308        C  0.37182991  0.40633515  0.08030696    -0.07400
C309        C  0.38491997  0.41783521  0.04910873    -0.08100
C310        C  0.36023113  0.42865354  0.02314773    -0.02700
C311        C  0.32221822  0.43272538  0.03119055     0.04100
N312        N  0.29546279  0.44364114  0.00636754     0.66700
H313        H  0.27966667  0.42238179  0.06670440     0.15600
H314        H  0.41460211  0.41865479  0.04533015     0.15300
N315        N  0.39775934  0.39834176  0.10712613     0.74400
O316        O  0.27896239  0.42041766  0.48688910    -0.39100
O317        O  0.28144269  0.47432093  0.51047879    -0.39000
O318        O  0.42446994  0.37705066  0.10049626    -0.39700
O319        O  0.39318398  0.41156152  0.13794350    -0.39800
C320        C  0.03228474  0.10181630  0.33909708    -0.12100
C321        C  0.06178995  0.11652734  0.35978636     0.04900
C322        C  0.06588385  0.10595576  0.39404180    -0.07400
C323        C  0.04250216  0.07973230  0.40529637    -0.08100
C324        C  0.01613535  0.06264946  0.38254599    -0.02700
C325        C  0.01046916  0.07501521  0.34940015     0.04100
N326        N  0.48547405  0.05859982  0.32398755     0.66700
H327        H  0.02877976  0.10774127  0.31221524     0.15600
H328        H  0.04702458  0.07084480  0.43106474     0.15300
N329        N  0.09470408  0.11939699  0.41697997     0.74400
O330        O  0.45915876  0.07687187  0.31255559    -0.39100
O331        O  0.49695554  0.03204859  0.30511397    -0.39000
O332        O  0.08647907  0.14212003  0.44150746    -0.39700
O333        O  0.12479493  0.10206820  0.41876523    -0.39800
C334        C  0.38523354  0.07558924  0.99882675    -0.12100
C335        C  0.39865210  0.04971407  0.02010099     0.04900
C336        C  0.39552912  0.05614239  0.05639905    -0.07400
C337        C  0.37606438  0.08609860  0.07011845    -0.08100
C338        C  0.35783744  0.10957327  0.04854108    -0.02700
C339        C  0.36517486  0.10527052  0.01238646     0.04100
N340        N  0.35372033  0.13039794  0.98871214     0.66700
H341        H  0.38933120  0.07239374  0.47091250     0.15600
H342        H  0.37250732  0.08946049  0.09810978     0.15300
N343        N  0.40932332  0.53151726  0.07972014     0.74400
O344        O  0.37546126  0.15503668  0.98332307    -0.39100
O345        O  0.32877941  0.12206667  0.96630137    -0.39000
O346        O  0.38709345  0.51026955  0.09160382    -0.39700
O347        O  0.44012191  0.53719741  0.09505649    -0.39800
C348        C  0.06763124  0.41834981  0.33060041    -0.12100
C349        C  0.03450679  0.40803270  0.34438123     0.04900
C350        C  0.01902323  0.37528837  0.33235223    -0.07400
C351        C  0.03439812  0.35561867  0.30385456    -0.08100
C352        C  0.06681570  0.36641622  0.28841566    -0.02700
C353        C  0.08495305  0.39721325  0.30412561     0.04100
N354        N  0.12181768  0.40666474  0.29539219     0.66700
H355        H  0.08025643  0.44293503  0.34047261     0.15600
H356        H  0.02247400  0.33027994  0.29582593     0.15300
N357        N  0.98976565  0.36013205  0.35074896     0.74400
O358        O  0.12622952  0.43431806  0.27998532    -0.39100
O359        O  0.14889451  0.39471167  0.31223079    -0.39000
O360        O  0.46248850  0.34670356  0.33389174    -0.39700
O361        O  0.99643848  0.35102658  0.38101342    -0.39800
C362        C  0.02349091  0.06103156  0.02351447    -0.12100
C363        C  0.04188233  0.02898370  0.01341864     0.04900
C364        C  0.07210735  0.01831030  0.03347849    -0.07400
C365        C  0.08345851  0.03964380  0.06278153    -0.08100
C366        C  0.06456821  0.07155847  0.07416060    -0.02700
C367        C  0.03477557  0.08253394  0.05292359     0.04100
N368        N  0.01688982  0.11620197  0.05925112     0.66700
H369        H  0.00023425  0.06982553  0.50805788     0.15600
H370        H  0.10868808  0.03134999  0.07548140     0.15300
N371        N  0.59100290  0.98537134  0.02530957     0.74400
O372        O  0.02853165  0.14187436  0.54384543    -0.39100
O373        O  0.98443130  0.11772329  0.07139589    -0.39000
O374        O  0.12100227  0.48493620  0.00865488    -0.39700
O375        O  0.58338329  0.95936288  0.04215351    -0.39800
C376        C  0.08477858  0.09699402  0.60077561     0.86700
C377        C  0.11187639  0.11742655  0.57979200    -0.53600
C378        C  0.13478968  0.13912574  0.59883032     0.09600
C379        C  0.12863056  0.13835716  0.63891484     0.20500
C380        C  0.10883116  0.07771245  0.62720020    -0.54300
C381        C  0.13316748  0.09808960  0.64640507     0.09700
C382        C  0.06332633  0.12614993  0.62411811    -0.53800
C383        C  0.08603098  0.14874100  0.64425363     0.10300
H384        H  0.11216526  0.11562422  0.55148278     0.14800
H385        H  0.14785552  0.15608760  0.65453519     0.00500
H386        H  0.10716588  0.04977935  0.63007537     0.15100
H387        H  0.03341045  0.12953264  0.62376608     0.14900
C388        C  0.07383522  0.18468001  0.66501631     0.30200
C389        C  0.07377486  0.25140838  0.70045762     0.30200
C390        C  0.09013375  0.21422710  0.64654444    -0.06000
C391        C  0.03400166  0.20108230  0.67348532    -0.06800
C392        C  0.09157947  0.18782169  0.70111408    -0.06700
C393        C  0.09059511  0.24790056  0.66438955    -0.06000
C394        C  0.03378894  0.23537491  0.69212954    -0.06800
C395        C  0.09100882  0.22156763  0.71895731    -0.06700
C396        C  0.08469520  0.27115093  0.63944697    -0.32100
N397        N  0.08197590  0.25371521  0.60777218     0.14400
C398        C  0.08300169  0.21921323  0.61226422    -0.32100
H399        H  0.07332014  0.19905116  0.59300076     0.16400
C400        C  0.49647927  0.24396219  0.69854631    -0.31000
N401        N  0.47453498  0.21725808  0.68424555     0.13200
C402        C  0.49708406  0.19131244  0.66894885    -0.31000
C403        C  0.08397520  0.21678316  0.75308598    -0.31300
N404        N  0.08280909  0.18235705  0.75758047     0.13700
H405        H  0.07380094  0.23716773  0.77194191     0.16300
C406        C  0.08580402  0.16479738  0.72602128    -0.31300
H407        H  0.07617774  0.13836599  0.72055857     0.16300
H408        H  0.48732621  0.16674207  0.65617681     0.16300
H409        H  0.07559358  0.29804441  0.64466654     0.16400
H410        H  0.48608478  0.26790555  0.71243238     0.16300
C411        C  0.08684936  0.33991349  0.76335602     0.86700
C412        C  0.11372382  0.31902464  0.78540103    -0.53600
C413        C  0.13589847  0.29576566  0.76718700     0.09600
C414        C  0.12954875  0.29596855  0.72693173     0.20500
C415        C  0.11018961  0.35760508  0.73701535    -0.54300
C416        C  0.13432684  0.33601622  0.71899784     0.09700
C417        C  0.06466481  0.31097309  0.74047876    -0.53800
C418        C  0.08676833  0.28705101  0.72112689     0.10300
H419        H  0.11419405  0.32152277  0.81372363     0.14800
H420        H  0.14855910  0.27731307  0.71192710     0.00500
H421        H  0.10824153  0.38540239  0.73356678     0.15100
H422        H  0.03467687  0.30875781  0.74057757     0.14900
C423        C  0.22690254  0.06918412  0.70866768     0.30200
C424        C  0.16509241  0.08227764  0.66874039     0.30200
C425        C  0.23314465  0.08924933  0.67685745    -0.06000
C426        C  0.20656437  0.03610043  0.69378112    -0.06800
C427        C  0.19516529  0.08961824  0.72722310    -0.06700
C428        C  0.20232702  0.09595881  0.65725644    -0.06000
C429        C  0.17456850  0.04179372  0.67285903    -0.06800
C430        C  0.16341778  0.09619766  0.70707559    -0.06700
C431        C  0.21494699  0.10790000  0.62726993    -0.32100
N432        N  0.25225169  0.11369349  0.62958077     0.14400
C433        C  0.26363426  0.09830272  0.65852084    -0.32100
H434        H  0.29154408  0.08986239  0.66389473     0.16400
C435        C  0.15804878  0.00847220  0.66776380    -0.31000
N436        N  0.17828185  0.48474282  0.68556956     0.13200
C437        C  0.20734350  0.00164438  0.70149118    -0.31000
C438        C  0.13418824  0.09525020  0.72965212    -0.31300
N439        N  0.14670125  0.09242663  0.76254874     0.13700
H440        H  0.10564688  0.09093623  0.72187736     0.16300
C441        C  0.18347499  0.08629599  0.76046764    -0.31300
H442        H  0.20009565  0.07599362  0.78095811     0.16300
H443        H  0.22766145  0.48893979  0.71728311     0.16300
H444        H  0.19874616  0.10285191  0.60411245     0.16400
H445        H  0.13336779  0.50182074  0.65249768     0.16300
C446        C  0.32887742  0.13476592  0.56651558     0.86700
C447        C  0.34727553  0.15940480  0.59551270    -0.53600
C448        C  0.32328656  0.17824697  0.61693726     0.09600
C449        C  0.28123113  0.17173967  0.60512871     0.20500
C450        C  0.30106351  0.11244261  0.58546797    -0.54300
C451        C  0.27623478  0.13100714  0.60590508     0.09700
C452        C  0.30329248  0.15915364  0.54550950    -0.53800
C453        C  0.27758640  0.17861312  0.56493838     0.10300
H454        H  0.37700454  0.15919252  0.60042003     0.14800
H455        H  0.26096964  0.18714344  0.62198625     0.00500
H456        H  0.30190815  0.08378027  0.58389128     0.15100
H457        H  0.30319608  0.16000244  0.51773982     0.14900
C458        C  0.09152902  0.13383118  0.83893502     0.86700
C459        C  0.07275566  0.15864944  0.81365250    -0.53600
C460        C  0.09549053  0.16779172  0.78849897     0.09600
C461        C  0.13513537  0.15458637  0.79167376     0.20500
C462        C  0.10992399  0.10362273  0.81543038    -0.54300
C463        C  0.13200432  0.11481771  0.79078763     0.09700
C464        C  0.12510770  0.15609800  0.85444576    -0.53800
C465        C  0.14793104  0.16734144  0.82883474     0.10300
H466        H  0.04346157  0.16606562  0.81390161     0.14800
H467        H  0.15289444  0.16295431  0.77051485     0.00500
H468        H  0.10401495  0.07582803  0.81675688     0.15100
H469        H  0.12923912  0.16332540  0.88188046     0.14900
C470        C  0.33561240  0.23229502  0.71862784     0.30200
C471        C  0.33519018  0.19772626  0.65289247     0.30200
C472        C  0.31908893  0.25241802  0.68940477    -0.06000
C473        C  0.37558093  0.22365473  0.70303104    -0.06800
C474        C  0.31870269  0.19585129  0.71502693    -0.06700
C475        C  0.31843725  0.23461054  0.65607398    -0.06000
C476        C  0.37533667  0.20547032  0.66896278    -0.06800
C477        C  0.31880437  0.17824637  0.68169345    -0.06700
C478        C  0.32667074  0.25939855  0.63338733    -0.32100
N479        N  0.33130325  0.29136388  0.65029943     0.14400
C480        C  0.32840738  0.28674928  0.68439837    -0.32100
H481        H  0.33894414  0.30541259  0.70470438     0.16400
C482        C  0.41238826  0.20124637  0.65920065    -0.31000
N483        N  0.43483196  0.21627697  0.68508157     0.13200
C484        C  0.41278857  0.23008950  0.71166834    -0.31000
C485        C  0.32699184  0.14338342  0.68637656    -0.31300
N486        N  0.32952811  0.13828651  0.72041577     0.13700
H487        H  0.33692514  0.12435487  0.66608950     0.16300
C488        C  0.32613633  0.17035663  0.73764044    -0.31300
H489        H  0.33604245  0.17576882  0.76391706     0.16300
H490        H  0.42312530  0.24377535  0.73545568     0.16300
H491        H  0.33621329  0.25316024  0.60728573     0.16400
H492        H  0.42237021  0.18904888  0.63468813     0.16300
C493        C  0.31540546  0.37445424  0.60254243     0.86700
C494        C  0.29851888  0.34960826  0.57293309    -0.53600
C495        C  0.27872318  0.32337943  0.58423200     0.09600
C496        C  0.27689364  0.32333777  0.62354036     0.20500
C497        C  0.28258971  0.38689073  0.62626183    -0.54300
C498        C  0.26216472  0.35986871  0.63694062     0.09700
C499        C  0.33841292  0.34863731  0.62439815    -0.53800
C500        C  0.31727278  0.32214648  0.63525261     0.10300
H501        H  0.30296779  0.35179676  0.54534053     0.14800
H502        H  0.26058239  0.30100008  0.63194728     0.00500
H503        H  0.27721110  0.41439237  0.63374863     0.15100
H504        H  0.36798227  0.34877116  0.62925368     0.14900
C505        C  0.31512712  0.05581982  0.76806270     0.86700
C506        C  0.29613024  0.08018897  0.79672076    -0.53600
C507        C  0.27662910  0.10674686  0.78467232     0.09600
C508        C  0.27523362  0.10672136  0.74540293     0.20500
C509        C  0.28273312  0.04262853  0.74344323    -0.54300
C510        C  0.26143789  0.06997355  0.73192047     0.09700
C511        C  0.33692050  0.08080183  0.74566219    -0.53800
C512        C  0.31557235  0.10767019  0.73477356     0.10300
H513        H  0.29962205  0.07794482  0.82454634     0.14800
H514        H  0.25853168  0.12921980  0.73647690     0.00500
H515        H  0.27824480  0.01524202  0.73531098     0.15100
H516        H  0.36646926  0.07859342  0.74038986     0.14900
C517        C  0.16628453  0.35065630  0.69783394     0.30200
C518        C  0.22782304  0.36156919  0.65940615     0.30200
C519        C  0.16458443  0.33628593  0.65984448    -0.06000
C520        C  0.17537417  0.39081827  0.69346342    -0.06800
C521        C  0.20336605  0.33626005  0.71063368    -0.06700
C522        C  0.19621383  0.34177294  0.64024091    -0.06000
C523        C  0.20736557  0.39548591  0.67334510    -0.06800
C524        C  0.23422265  0.34178513  0.69170497    -0.06700
C525        C  0.18399681  0.34607881  0.60699188    -0.32100
N526        N  0.14709240  0.34165399  0.60457819     0.14400
C527        C  0.13506518  0.33866360  0.63716110    -0.32100
H528        H  0.10668293  0.34394220  0.64476944     0.16400
C529        C  0.20771429  0.42984888  0.66510796    -0.31000
N530        N  0.17836896  0.44751458  0.67990346     0.13200
C531        C  0.15831454  0.42443270  0.69739738    -0.31000
C532        C  0.26463223  0.33253692  0.71129362    -0.31300
N533        N  0.25304270  0.31818613  0.74033563     0.13700
H534        H  0.29251603  0.34027519  0.70671113     0.16300
C535        C  0.21576552  0.32496046  0.74138741    -0.31300
H536        H  0.19934201  0.33081805  0.76426807     0.16300
H537        H  0.13322503  0.43176090  0.71140316     0.16300
H538        H  0.20030321  0.35633160  0.58689730     0.16400
H539        H  0.22779262  0.44209461  0.64968670     0.16300
C540        C  0.09160425  0.30259361  0.52721384     0.86700
C541        C  0.07249839  0.27814474  0.55166977    -0.53600
C542        C  0.09506903  0.26804518  0.57734147     0.09600
C543        C  0.13488638  0.28007458  0.57540720     0.20500
C544        C  0.10948754  0.33204716  0.55151535    -0.54300
C545        C  0.13177642  0.31993521  0.57632530     0.09700
C546        C  0.12534052  0.27931942  0.51259731    -0.53800
C547        C  0.14811616  0.26726563  0.53864571     0.10300
H548        H  0.04364336  0.27029574  0.55007812     0.14800
H549        H  0.15253861  0.27106651  0.59698291     0.00500
H550        H  0.10355574  0.36004080  0.55027014     0.15100
H551        H  0.12957544  0.27229222  0.48518633     0.14900
C552        C  0.32815125  0.29378888  0.80634317     0.86700
C553        C  0.34739041  0.26956213  0.77735663    -0.53600
C554        C  0.32371171  0.25179924  0.75452821     0.09600
C555        C  0.28149509  0.25894350  0.76505378     0.20500
C556        C  0.30066617  0.31736381  0.78669727    -0.54300
C557        C  0.27651493  0.29984654  0.76472069     0.09700
C558        C  0.30243458  0.26971297  0.82559114    -0.53800
C559        C  0.27733517  0.25137190  0.80499620     0.10300
H560        H  0.37721484  0.26916690  0.77368443     0.14800
H561        H  0.26150069  0.24436386  0.74725354     0.00500
H562        H  0.30120421  0.34602244  0.78900511     0.15100
H563        H  0.30136323  0.26879841  0.85326638     0.14900
C564        C  0.24516707  0.20125187  0.54900231     0.30200
C565        C  0.18297347  0.24297681  0.53691350     0.30200
C566        C  0.24655495  0.23970522  0.56350607    -0.06000
C567        C  0.23553198  0.20651219  0.50928091    -0.06800
C568        C  0.20781335  0.18988190  0.56216796    -0.06700
C569        C  0.21503028  0.26076798  0.55726061    -0.06000
C570        C  0.20341343  0.22804571  0.50406066    -0.06800
C571        C  0.17697054  0.21026119  0.55618047    -0.06700
C572        C  0.22727778  0.29430191  0.55501992    -0.32100
N573        N  0.26391702  0.29545772  0.56183811     0.14400
C574        C  0.27606670  0.26201930  0.56413335    -0.32100
H575        H  0.30475280  0.25392864  0.56132934     0.16400
C576        C  0.20172553  0.23506922  0.96986437    -0.31000
N577        N  0.23065583  0.21869583  0.95291080     0.13200
C578        C  0.25136943  0.20086026  0.97616702    -0.31000
C579        C  0.14676501  0.19248148  0.56672708    -0.31300
N580        N  0.15849337  0.16338149  0.58215322     0.13700
H581        H  0.11870150  0.19816881  0.55917199     0.16300
C582        C  0.19545937  0.16019102  0.57513289    -0.31300
H583        H  0.21159158  0.13658864  0.57079863     0.16300
H584        H  0.27584090  0.18503639  0.96939700     0.16300
H585        H  0.21117994  0.31579135  0.54553398     0.16400
H586        H  0.18073774  0.25062123  0.95756080     0.16300
C587        C  0.24494916  0.22988872  0.82017353     0.30200
C588        C  0.18261032  0.19062388  0.83124428     0.30200
C589        C  0.24578620  0.19162715  0.80531484    -0.06000
C590        C  0.23575113  0.22469690  0.85980347    -0.06800
C591        C  0.20770450  0.24290987  0.80673481    -0.06700
C592        C  0.21416300  0.17180924  0.81112239    -0.06000
C593        C  0.20350806  0.20437160  0.86442864    -0.06800
C594        C  0.17668694  0.22377200  0.81219617    -0.06700
C595        C  0.22586028  0.13776702  0.81311454    -0.32100
N596        N  0.26230078  0.13524285  0.80663949     0.14400
C597        C  0.27496517  0.16813408  0.80476972    -0.32100
H598        H  0.30374528  0.17496699  0.80831755     0.16400
C599        C  0.20164652  0.19756588  0.89860532    -0.31000
N600        N  0.23064265  0.21295618  0.91618121     0.13200
C601        C  0.25152224  0.22995371  0.89333994    -0.31000
C602        C  0.14678151  0.24247929  0.80047063    -0.31300
N603        N  0.15901919  0.27079265  0.78482353     0.13700
H604        H  0.11862787  0.23794849  0.80724168     0.16300
C605        C  0.19590717  0.27260522  0.79269506    -0.31300
H606        H  0.21255951  0.29570489  0.79655765     0.16300
H607        H  0.27601847  0.24495386  0.90072451     0.16300
H608        H  0.20963285  0.11685337  0.82226718     0.16400
H609        H  0.18045518  0.18292886  0.91049550     0.16300
O610        O  0.48938407  0.00695044  0.48233310    -0.80000
O611        O  0.41376787  0.01328516  0.89009901    -0.80000
O612        O  0.99636624  0.02284888  0.92302615    -0.80000
O613        O  0.40600206  0.01003583  0.96964431    -0.79900
O614        O  0.48557705  0.00822307  0.86889883    -0.80100
O615        O  0.43092071  0.99289981  0.51898777    -0.80000
O616        O  0.36784777  0.98361862  0.90613852    -0.80000
O617        O  0.04446567  0.48681928  0.96265015    -0.80000
C618        C  0.02519107  0.00557918  0.98522136     1.09700
C619        C  0.38004470  0.00647087  0.88757435     1.09600
C620        C  0.99778454  0.03018829  0.89209805     1.09800
C621        C  0.41256977  0.01590274  0.00277063     1.09600
O622        O  0.41021963  0.43208039  0.48327045    -0.80000
O623        O  0.47851010  0.43540272  0.85811657    -0.80000
O624        O  0.01069578  0.42392662  0.94494593    -0.80000
O625        O  0.39488742  0.41611532  0.91487818    -0.79900
O626        O  0.40472339  0.43887382  0.86487236    -0.80000
O627        O  0.48272907  0.43310393  0.49444757    -0.80000
O628        O  0.35745621  0.45602258  0.96872766    -0.79900
O629        O  0.02744144  0.45465615  0.89017541    -0.80000
Co630      Co  0.44844446  0.47010486  0.97591388     1.51500
Co631      Co  0.44543392  0.47379162  0.87328112     1.51700
Co632      Co  0.00180462  0.47245617  0.93495461     1.51600
Co633      Co  0.40114790  0.46224766  0.94147243     1.51500
O634        O  0.45257872  0.46022449  0.92219364    -1.41900
C635        C  0.37587906  0.43880041  0.99004659     1.09700
C636        C  0.01263691  0.43374390  0.86607362     1.09800
C637        C  0.00390292  0.41395151  0.97426180     1.09700
C638        C  0.39561010  0.41314129  0.88179407     1.09700
C639        C  0.37305325  0.35193187  0.88120164    -0.12100
C640        C  0.38418880  0.37985258  0.86238685     0.04900
C641        C  0.38573931  0.37445415  0.82560463    -0.07400
C642        C  0.37280340  0.34307311  0.80893910    -0.08100
C643        C  0.35543360  0.31769846  0.82754470    -0.02700
C644        C  0.35934052  0.32078047  0.86439651     0.04100
N645        N  0.35246956  0.29240829  0.88540012     0.66700
H646        H  0.37481268  0.35418425  0.90940009     0.15600
H647        H  0.37237044  0.34040517  0.78068364     0.15300
N648        N  0.39894767  0.40069611  0.80437694     0.74400
O649        O  0.37704191  0.26854018  0.88721990    -0.39100
O650        O  0.32876311  0.29681414  0.90930750    -0.40600
O651        O  0.42921889  0.39529650  0.78846866    -0.39700
O652        O  0.37623445  0.42333207  0.79403482    -0.39800
C653        C  0.05485676  0.36906391  0.46608332    -0.12100
C654        C  0.02239478  0.38092872  0.48379818     0.04900
C655        C  0.00899561  0.36103389  0.50971586    -0.07400
C656        C  0.02920334  0.33172462  0.51928434    -0.08100
C657        C  0.06381549  0.32117608  0.50403656    -0.02700
C658        C  0.07581807  0.34010291  0.47620694     0.04100
N659        N  0.11080493  0.33262419  0.45993682     0.66700
H660        H  0.06555771  0.38371281  0.44549499     0.15600
H661        H  0.01904334  0.32023420  0.54193838     0.15300
N662        N  0.47655505  0.37176097  0.52887230     0.74400
O663        O  0.11148180  0.31478151  0.43085437    -0.39100
O664        O  0.13835574  0.35140291  0.46927394    -0.39000
O665        O  0.44682819  0.35501781  0.02298218    -0.39700
O666        O  0.48033121  0.39094448  0.55694967    -0.39800
C667        C  0.36869286  0.04973358  0.80643137    -0.12100
C668        C  0.33963553  0.03126917  0.78811116     0.04900
C669        C  0.32425742  0.00236019  0.80398333    -0.07400
C670        C  0.33654585  0.99461153  0.83732854    -0.08100
C671        C  0.36010857  0.01780454  0.85694941    -0.02700
C672        C  0.37309257  0.04769934  0.84217742     0.04100
N673        N  0.38671380  0.07765745  0.86392869     0.66700
H674        H  0.38064189  0.07240938  0.79597386     0.15600
H675        H  0.32689447  0.47103869  0.84819624     0.15300
N676        N  0.29497561  0.98180290  0.78778794     0.74400
O677        O  0.40112320  0.10328192  0.85046845    -0.39100
O678        O  0.37678604  0.08217804  0.89532336    -0.39000
O679        O  0.30278969  0.45249307  0.77159451    -0.39700
O680        O  0.26196899  0.98800432  0.79749713    -0.39800
C681        C  0.30946161  0.42227436  0.56276237    -0.12100
C682        C  0.33324114  0.40438469  0.58509822     0.04900
C683        C  0.37182265  0.40633645  0.58030670    -0.07400
C684        C  0.38491389  0.41783732  0.54910923    -0.08100
C685        C  0.36022571  0.42865802  0.52314852    -0.02700
C686        C  0.32221279  0.43273090  0.53119118     0.04100
N687        N  0.29545882  0.44365564  0.50637123     0.66700
H688        H  0.27965978  0.42238246  0.56670179     0.15600
H689        H  0.41459627  0.41865656  0.54533142     0.15300
N690        N  0.39775016  0.39834654  0.60712881     0.74400
O691        O  0.27897572  0.42039733  0.98688475    -0.39100
O692        O  0.28143709  0.47430279  0.01047144    -0.39000
O693        O  0.42446781  0.37706313  0.60050110    -0.39700
O694        O  0.39316722  0.41156296  0.63794630    -0.39800
C695        C  0.03227951  0.10182222  0.83910064    -0.12100
C696        C  0.06179333  0.11652506  0.85978408     0.04900
C697        C  0.06589976  0.10594199  0.89403431    -0.07400
C698        C  0.04251696  0.07972089  0.90529097    -0.08100
C699        C  0.01613754  0.06264948  0.88254660    -0.02700
C700        C  0.01046188  0.07502341  0.84940572     0.04100
N701        N  0.48546790  0.05859435  0.82398572     0.66700
H702        H  0.02876662  0.10775206  0.81222110     0.15600
H703        H  0.04704874  0.07082487  0.93105467     0.15300
N704        N  0.09473650  0.11936593  0.91696264     0.74400
O705        O  0.45915113  0.07687245  0.81256524    -0.39100
O706        O  0.49693873  0.03204398  0.80510475    -0.39000
O707        O  0.08653221  0.14208290  0.94150191    -0.39700
O708        O  0.12482367  0.10202756  0.91872549    -0.39800
C709        C  0.38523645  0.07559167  0.49882209    -0.12100
C710        C  0.39866361  0.04972251  0.52009924     0.04900
C711        C  0.39554760  0.05615760  0.55639718    -0.07400
C712        C  0.37607733  0.08611151  0.57011411    -0.08100
C713        C  0.35784166  0.10957895  0.54853481    -0.02700
C714        C  0.36517338  0.10527096  0.51237921     0.04100
N715        N  0.35370263  0.13038743  0.48869962     0.66700
H716        H  0.38933430  0.07239593  0.97091786     0.15600
H717        H  0.37252435  0.08947746  0.59810579     0.15300
N718        N  0.40938224  0.53156453  0.57971678     0.74400
O719        O  0.37543552  0.15502696  0.48329276    -0.39100
O720        O  0.32875340  0.12204424  0.46630093    -0.39000
O721        O  0.38717269  0.51032148  0.59163676    -0.39700
O722        O  0.44019370  0.53726362  0.59502320    -0.39800
C723        C  0.06763036  0.41834310  0.83059432    -0.12100
C724        C  0.03450759  0.40802552  0.84437814     0.04900
C725        C  0.01902252  0.37528180  0.83234839    -0.07400
C726        C  0.03439412  0.35561359  0.80384789    -0.08100
C727        C  0.06681086  0.36641090  0.78840745    -0.02700
C728        C  0.08494960  0.39720727  0.80411724     0.04100
N729        N  0.12181381  0.40665817  0.79538186     0.66700
H730        H  0.08025649  0.44292793  0.84046626     0.15600
H731        H  0.02246915  0.33027535  0.79581879     0.15300
N732        N  0.98976796  0.36012381  0.85074785     0.74400
O733        O  0.12622518  0.43431113  0.77997435    -0.39100
O734        O  0.14889155  0.39470446  0.81221878    -0.39000
O735        O  0.46248374  0.34671744  0.83388383    -0.39700
O736        O  0.99644261  0.35102529  0.88101450    -0.39800
C737        C  0.02350425  0.06103324  0.52350066    -0.12100
C738        C  0.04188640  0.02897858  0.51341414     0.04900
C739        C  0.07209985  0.01829690  0.53348352    -0.07400
C740        C  0.08344962  0.03962944  0.56278741    -0.08100
C741        C  0.06456852  0.07155189  0.57415718    -0.02700
C742        C  0.03478743  0.08253481  0.55291052     0.04100
N743        N  0.01691347  0.11620958  0.55922925     0.66700
H744        H  0.00021235  0.06981853  0.00807933     0.15600
H745        H  0.10867183  0.03132801  0.57549392     0.15300
N746        N  0.59102525  0.98538651  0.52529106     0.74400
O747        O  0.02849157  0.14187328  0.04386714    -0.39100
O748        O  0.98445079  0.11774390  0.57136443    -0.39000
O749        O  0.12101456  0.48494731  0.50864404    -0.39700
O750        O  0.58341711  0.95937495  0.54213499    -0.39800
C751        C  0.08477728  0.59699660  0.10077991     0.86700
C752        C  0.11187571  0.61742793  0.07979578    -0.53600
C753        C  0.13479007  0.63912672  0.09883353     0.09600
C754        C  0.12863080  0.63835930  0.13891840     0.20500
C755        C  0.10882976  0.57771487  0.12720470    -0.54300
C756        C  0.13316579  0.59809201  0.14641054     0.09700
C757        C  0.06332637  0.62615380  0.12412226    -0.53800
C758        C  0.08603207  0.64874459  0.14425700     0.10300
H759        H  0.11216421  0.61562504  0.05148654     0.14800
H760        H  0.14785621  0.65608965  0.15453832     0.00500
H761        H  0.10716457  0.54978150  0.13007871     0.15100
H762        H  0.03341067  0.62953732  0.12377131     0.14900
C763        C  0.07383828  0.68468374  0.16502012     0.30200
C764        C  0.07377790  0.75141161  0.20046279     0.30200
C765        C  0.09013568  0.71423121  0.14654837    -0.06000
C766        C  0.03400500  0.70108509  0.17349111    -0.06800
C767        C  0.09158507  0.68782512  0.20111650    -0.06700
C768        C  0.09059657  0.74790460  0.16439381    -0.06000
C769        C  0.03379198  0.73537742  0.19213585    -0.06800
C770        C  0.09101295  0.72157035  0.21896124    -0.06700
C771        C  0.08469553  0.77115488  0.13945122    -0.32100
N772        N  0.08197708  0.75371906  0.10777631     0.14400
C773        C  0.08300346  0.71921718  0.11226835    -0.32100
H774        H  0.07332196  0.69905501  0.09300497     0.16400
C775        C  0.49648212  0.74396335  0.19855370    -0.31000
N776        N  0.47453838  0.71725868  0.18425295     0.13200
C777        C  0.49708785  0.69131404  0.16895542    -0.31000
C778        C  0.08397973  0.71678325  0.25308954    -0.31300
N779        N  0.08281721  0.68235641  0.25758181     0.13700
H780        H  0.07380467  0.73716607  0.27194691     0.16300
C781        C  0.08581388  0.66479860  0.22602208    -0.31300
H782        H  0.07619223  0.63836604  0.22055776     0.16300
H783        H  0.48733049  0.66674360  0.15618317     0.16300
H784        H  0.07559262  0.79804807  0.14467067     0.16400
H785        H  0.48608718  0.76790622  0.21244035     0.16300
C786        C  0.08685527  0.83991466  0.26336398     0.86700
C787        C  0.11373009  0.81902428  0.28540725    -0.53600
C788        C  0.13590389  0.79576599  0.26719118     0.09600
C789        C  0.12955319  0.79597121  0.22693649     0.20500
C790        C  0.11019526  0.85760770  0.23702396    -0.54300
C791        C  0.13433208  0.83601951  0.21900518     0.09700
C792        C  0.06466983  0.81097555  0.24048580    -0.53800
C793        C  0.08677245  0.78705400  0.22113239     0.10300
H794        H  0.11420098  0.82152066  0.31372985     0.14800
H795        H  0.14856303  0.77731631  0.21193056     0.00500
H796        H  0.10824802  0.88540546  0.23357718     0.15100
H797        H  0.03468188  0.80876039  0.24058544     0.14900
C798        C  0.22690014  0.56918695  0.20867524     0.30200
C799        C  0.16509001  0.58228039  0.16874756     0.30200
C800        C  0.23314078  0.58926090  0.17687075    -0.06000
C801        C  0.20656834  0.53610303  0.19378022    -0.06800
C802        C  0.19515931  0.58961322  0.22723261    -0.06700
C803        C  0.20232310  0.59597080  0.15726972    -0.06000
C804        C  0.17457260  0.54179622  0.17285776    -0.06800
C805        C  0.16341135  0.59619196  0.20708553    -0.06700
C806        C  0.21494396  0.60791064  0.12728287    -0.32100
N807        N  0.25224852  0.61370346  0.12959352     0.14400
C808        C  0.26363052  0.59831143  0.15853291    -0.32100
H809        H  0.29153927  0.58986582  0.16390393     0.16400
C810        C  0.15805096  0.50847521  0.16776557    -0.31000
N811        N  0.17828394  0.98474594  0.18557139     0.13200
C812        C  0.20734540  0.50164773  0.20149288    -0.31000
C813        C  0.13418225  0.59523911  0.22966222    -0.31300
N814        N  0.14669636  0.59241661  0.26255900     0.13700
H815        H  0.10564049  0.59092521  0.22188820     0.16300
C816        C  0.18347040  0.58628793  0.26047688    -0.31300
H817        H  0.20009329  0.57598870  0.28096758     0.16300
H818        H  0.22766100  0.98894383  0.21728762     0.16300
H819        H  0.19874454  0.60285887  0.10412448     0.16400
H820        H  0.13336792  0.00182421  0.15250209     0.16300
C821        C  0.32887677  0.63476139  0.06652553     0.86700
C822        C  0.34727706  0.65940036  0.09552105    -0.53600
C823        C  0.32328970  0.67824784  0.11694304     0.09600
C824        C  0.28123360  0.67174347  0.10513465     0.20500
C825        C  0.30105914  0.61244304  0.08547939    -0.54300
C826        C  0.27623278  0.63101203  0.10591521     0.09700
C827        C  0.30329424  0.65914844  0.04551613    -0.53800
C828        C  0.27758963  0.67861242  0.06494312     0.10300
H829        H  0.37700588  0.65918409  0.10042983     0.14800
H830        H  0.26097337  0.68715077  0.12199065     0.00500
H831        H  0.30189936  0.58378072  0.08390490     0.15100
H832        H  0.30319531  0.65998894  0.01774518     0.14900
C833        C  0.09152665  0.63383520  0.33894058     0.86700
C834        C  0.07275715  0.65865183  0.31365435    -0.53600
C835        C  0.09549448  0.66778906  0.28850047     0.09600
C836        C  0.13513775  0.65458036  0.29167772     0.20500
C837        C  0.10992017  0.60362264  0.31544001    -0.54300
C838        C  0.13200240  0.61481227  0.29079614     0.09700
C839        C  0.12510691  0.65610113  0.35444975    -0.53800
C840        C  0.14793278  0.66733943  0.32883763     0.10300
H841        H  0.04346391  0.66607120  0.31390215     0.14800
H842        H  0.15289871  0.66294399  0.27051819     0.00500
H843        H  0.10400818  0.57582891  0.31676945     0.15100
H844        H  0.12923674  0.66333223  0.38188399     0.14900
C845        C  0.33561566  0.73229687  0.21863259     0.30200
C846        C  0.33519429  0.69772760  0.15289778     0.30200
C847        C  0.31909553  0.75242110  0.18940906    -0.06000
C848        C  0.37558432  0.72365335  0.20303782    -0.06800
C849        C  0.31870146  0.69585542  0.21503123    -0.06700
C850        C  0.31844501  0.73461384  0.15607815    -0.06000
C851        C  0.37534051  0.70546869  0.16896976    -0.06800
C852        C  0.31880528  0.67824941  0.18169855    -0.06700
C853        C  0.32668264  0.75940206  0.13339258    -0.32100
N854        N  0.33131450  0.79136741  0.15030537     0.14400
C855        C  0.32841615  0.78675200  0.18440389    -0.32100
H856        H  0.33895268  0.80541446  0.20471080     0.16400
C857        C  0.41239220  0.70124503  0.15920804    -0.31000
N858        N  0.43483548  0.71627614  0.18508909     0.13200
C859        C  0.41279174  0.73008863  0.21167552    -0.31000
C860        C  0.32698941  0.64338619  0.18638412    -0.31300
N861        N  0.32951925  0.63829087  0.22042409     0.13700
H862        H  0.33692277  0.62435561  0.16609890     0.16300
C863        C  0.32612700  0.67036160  0.23764715    -0.31300
H864        H  0.33602648  0.67577445  0.26392563     0.16300
H865        H  0.42312807  0.74377578  0.23546232     0.16300
H866        H  0.33622853  0.75316374  0.10729199     0.16400
H867        H  0.42237427  0.68904838  0.13469518     0.16300
C868        C  0.31540968  0.87445543  0.10254609     0.86700
C869        C  0.29852137  0.84960712  0.07293960    -0.53600
C870        C  0.27872752  0.82337881  0.08424181     0.09600
C871        C  0.27690114  0.82333986  0.12355055     0.20500
C872        C  0.28259528  0.88689297  0.12626700    -0.54300
C873        C  0.26217192  0.85987141  0.13694932     0.09700
C874        C  0.33841973  0.84864027  0.12440174    -0.53800
C875        C  0.31728139  0.82214980  0.13525966     0.10300
H876        H  0.30296788  0.85179359  0.04534634     0.14800
H877        H  0.26059125  0.80100247  0.13196005     0.00500
H878        H  0.27721527  0.91439499  0.13375105     0.15100
H879        H  0.36798970  0.84877428  0.12925379     0.14900
C880        C  0.31512748  0.55581755  0.26806464     0.86700
C881        C  0.29613365  0.58018282  0.29672761    -0.53600
C882        C  0.27662962  0.60674189  0.28468476     0.09600
C883        C  0.27522955  0.60672186  0.24541581     0.20500
C884        C  0.28273215  0.54262889  0.24344609    -0.54300
C885        C  0.26143462  0.56997506  0.23192899     0.09700
C886        C  0.33691747  0.58080370  0.24566547    -0.53800
C887        C  0.31556701  0.60767354  0.23478286     0.10300
H888        H  0.29962969  0.57793538  0.32455225     0.14800
H889        H  0.25852549  0.62922111  0.23649433     0.00500
H890        H  0.27824640  0.51524299  0.23530908     0.15100
H891        H  0.36646506  0.57859578  0.24038774     0.14900
C892        C  0.16629036  0.85066030  0.19784235     0.30200
C893        C  0.22782968  0.86157278  0.15941481     0.30200
C894        C  0.16459233  0.83628690  0.15985392    -0.06000
C895        C  0.17537818  0.89082209  0.19346894    -0.06800
C896        C  0.20337228  0.83626739  0.21064437    -0.06700
C897        C  0.19622188  0.84177398  0.14025046    -0.06000
C898        C  0.20736987  0.89548955  0.17335076    -0.06800
C899        C  0.23422901  0.84179166  0.19171549    -0.06700
C900        C  0.18400510  0.84607830  0.10700117    -0.32100
N901        N  0.14710099  0.84165241  0.10458755     0.14400
C902        C  0.13507334  0.83866192  0.13717013    -0.32100
H903        H  0.10669101  0.84394025  0.14477810     0.16400
C904        C  0.20771733  0.92985192  0.16511178    -0.31000
N905        N  0.17837125  0.94751760  0.17990627     0.13200
C906        C  0.15831772  0.92443615  0.19740165    -0.31000
C907        C  0.26463821  0.83253957  0.21130231    -0.31300
N908        N  0.25304795  0.81818891  0.24034412     0.13700
H909        H  0.29252266  0.84027462  0.20671866     0.16300
C910        C  0.21577126  0.82496572  0.24139725    -0.31300
H911        H  0.19934762  0.83082061  0.26427859     0.16300
H912        H  0.13322856  0.93176436  0.21140811     0.16300
H913        H  0.20031103  0.85633182  0.08690667     0.16400
H914        H  0.22779599  0.94209736  0.14969058     0.16300
C915        C  0.09161219  0.80260013  0.02722117     0.86700
C916        C  0.07250396  0.77815070  0.05167488    -0.53600
C917        C  0.09507297  0.76804824  0.07734628     0.09600
C918        C  0.13489149  0.78007484  0.07541321     0.20500
C919        C  0.10949714  0.83205093  0.05152444    -0.54300
C920        C  0.13178445  0.81993587  0.07633363     0.09700
C921        C  0.12534698  0.77932472  0.01260335    -0.53800
C922        C  0.14812110  0.76726725  0.03865099     0.10300
H923        H  0.04364827  0.77030378  0.05008232     0.14800
H924        H  0.15254256  0.77106429  0.09698855     0.00500
H925        H  0.10356749  0.86004518  0.05028102     0.15100
H926        H  0.12958248  0.77230015  0.98519197     0.14900
C927        C  0.32815644  0.79378773  0.30634873     0.86700
C928        C  0.34739505  0.76956256  0.27736106    -0.53600
C929        C  0.32371591  0.75180092  0.25453247     0.09600
C930        C  0.28149975  0.75894437  0.26505834     0.20500
C931        C  0.30067075  0.81736366  0.28670509    -0.54300
C932        C  0.27651952  0.79984758  0.26472799     0.09700
C933        C  0.30244003  0.76971032  0.32559581    -0.53800
C934        C  0.27734036  0.75136958  0.30499977     0.10300
H935        H  0.37721943  0.76916725  0.27368864     0.14800
H936        H  0.26150535  0.74436583  0.24725722     0.00500
H937        H  0.30120853  0.84602233  0.28901446     0.15100
H938        H  0.30137019  0.76879471  0.35327111     0.14900
C939        C  0.24517059  0.70125065  0.04900537     0.30200
C940        C  0.18297768  0.74297719  0.03691717     0.30200
C941        C  0.24655757  0.73970311  0.06351215    -0.06000
C942        C  0.23553741  0.70651408  0.00928385    -0.06800
C943        C  0.20781578  0.68987924  0.06216803    -0.06700
C944        C  0.21503369  0.76076655  0.05726656    -0.06000
C945        C  0.20341917  0.72804824  0.00406388    -0.06800
C946        C  0.17697356  0.71025982  0.05618144    -0.06700
C947        C  0.22728148  0.79430088  0.05502952    -0.32100
N948        N  0.26392012  0.79545585  0.06185042     0.14400
C949        C  0.27606947  0.76201725  0.06414476    -0.32100
H950        H  0.30475566  0.75392662  0.06134298     0.16400
C951        C  0.20172295  0.73507022  0.46986245    -0.31000
N952        N  0.23065453  0.71869854  0.45290975     0.13200
C953        C  0.25136704  0.70086168  0.47616536    -0.31000
C954        C  0.14676758  0.69248204  0.06673012    -0.31300
N955        N  0.15849493  0.66338115  0.08215549     0.13700
H956        H  0.11870404  0.69817167  0.05917737     0.16300
C957        C  0.19546058  0.66018879  0.07513340    -0.31300
H958        H  0.21159238  0.63658478  0.07080115     0.16300
H959        H  0.27583999  0.68503999  0.46939550     0.16300
H960        H  0.21118464  0.81579111  0.04554392     0.16400
H961        H  0.18073663  0.75062401  0.45755902     0.16300
C962        C  0.24495326  0.72988533  0.32017462     0.30200
C963        C  0.18261261  0.69062181  0.33124479     0.30200
C964        C  0.24579268  0.69162101  0.30532238    -0.06000
C965        C  0.23574995  0.72470003  0.35980398    -0.06800
C966        C  0.20771006  0.74290291  0.30672867    -0.06700
C967        C  0.21416762  0.67180444  0.31112848    -0.06000
C968        C  0.20350642  0.70437536  0.36442895    -0.06800
C969        C  0.17669162  0.72376588  0.31219026    -0.06700
C970        C  0.22586286  0.63776242  0.31312583    -0.32100
N971        N  0.26230448  0.63523598  0.30665658     0.14400
C972        C  0.27497079  0.66812681  0.30478672    -0.32100
H973        H  0.30375096  0.67495867  0.30833920     0.16400
C974        C  0.20164529  0.69756909  0.39860511    -0.31000
N975        N  0.23064159  0.71295906  0.41618062     0.13200
C976        C  0.25152173  0.72995610  0.39333984    -0.31000
C977        C  0.14678620  0.74247664  0.30047006    -0.31300
N978        N  0.15902424  0.77079072  0.28482466     0.13700
H979        H  0.11863313  0.73794888  0.30724551     0.16300
C980        C  0.19591267  0.77260086  0.29269374    -0.31300
H981        H  0.21256424  0.79570102  0.29656187     0.16300
H982        H  0.27601942  0.74495410  0.40072434     0.16300
H983        H  0.20963224  0.61685001  0.32227670     0.16400
H984        H  0.18045507  0.68293070  0.41049520     0.16300
O985        O  0.48938037  0.50695263  0.98233162    -0.80000
O986        O  0.41376762  0.51328657  0.39010143    -0.80000
O987        O  0.99636519  0.52285053  0.42302850    -0.80000
O988        O  0.40600623  0.51003859  0.46964331    -0.79900
O989        O  0.48557604  0.50822539  0.36890119    -0.80100
O990        O  0.43091835  0.49289501  0.01898714    -0.80000
O991        O  0.36784692  0.48362111  0.40613967    -0.80000
O992        O  0.04446797  0.98681765  0.46264669    -0.80000
C993        C  0.02519503  0.50557753  0.48521888     1.09700
C994        C  0.38004469  0.50647236  0.38757478     1.09600
C995        C  0.99778329  0.53019073  0.39210055     1.09800
C996        C  0.41257541  0.51590812  0.50276903     1.09600
O997        O  0.41022127  0.93207678  0.98326788    -0.80000
O998        O  0.47850996  0.93540447  0.35811771    -0.80000
O999        O  0.01069523  0.92392642  0.44494509    -0.80000
O1000       O  0.39488488  0.91611785  0.41488169    -0.79900
O1001       O  0.40472313  0.93887468  0.36487524    -0.80000
O1002       O  0.48273112  0.93310756  0.99444860    -0.80000
O1003       O  0.35745598  0.95602891  0.46873078    -0.79900
O1004       O  0.02744037  0.95465953  0.39017630    -0.80000
Co1005     Co  0.44844550  0.97010563  0.47591515     1.51500
Co1006     Co  0.44543350  0.97379317  0.37328281     1.51700
Co1007     Co  0.00180411  0.97245674  0.43495547     1.51600
Co1008     Co  0.40114766  0.96225064  0.44147405     1.51500
O1009       O  0.45257810  0.96022515  0.42219480    -1.41900
C1010       C  0.37587802  0.93880597  0.49004960     1.09700
C1011       C  0.01263667  0.93374638  0.36607527     1.09800
C1012       C  0.00390007  0.91394823  0.47425934     1.09700
C1013       C  0.39560947  0.91314259  0.38179767     1.09700
C1014       C  0.37305806  0.85193081  0.38120607    -0.12100
C1015       C  0.38419057  0.87985276  0.36239112     0.04900
C1016       C  0.38574133  0.87445445  0.32560897    -0.07400
C1017       C  0.37280768  0.84307262  0.30894352    -0.08100
C1018       C  0.35543961  0.81769702  0.32754930    -0.02700
C1019       C  0.35934776  0.82077829  0.36440069     0.04100
N1020       N  0.35248245  0.79240349  0.38540265     0.66700
H1021       H  0.37481860  0.85418293  0.40940446     0.15600
H1022       H  0.37237424  0.84040492  0.28068806     0.15300
N1023       N  0.39894719  0.90069754  0.30438130     0.74400
O1024       O  0.37705605  0.76853547  0.38721555    -0.39100
O1025       O  0.32877990  0.79680540  0.40931374    -0.40600
O1026       O  0.42922250  0.89530363  0.28847862    -0.39700
O1027       O  0.37623088  0.92332838  0.29403444    -0.39800
C1028       C  0.05486506  0.86907239  0.96609112    -0.12100
C1029       C  0.02240153  0.88093555  0.98380433     0.04900
C1030       C  0.00900443  0.86104301  0.00972455    -0.07400
C1031       C  0.02921340  0.83173539  0.01929452    -0.08100
C1032       C  0.06382496  0.82118622  0.00404588    -0.02700
C1033       C  0.07582822  0.84011355  0.97621691     0.04100
N1034       N  0.11081787  0.83263863  0.95995072     0.66700
H1035       H  0.06556574  0.88372135  0.94550270     0.15600
H1036       H  0.01905456  0.82024661  0.04194994     0.15300
N1037       N  0.47656422  0.87177078  0.02888158     0.74400
O1038       O  0.11149899  0.81480835  0.93086165    -0.39100
O1039       O  0.13836920  0.85141107  0.96930126    -0.39000
O1040       O  0.44681871  0.85501032  0.52297073    -0.39700
O1041       O  0.48034053  0.89095786  0.05695676    -0.39800
C1042       C  0.36870046  0.54972133  0.30642195    -0.12100
C1043       C  0.33963657  0.53126212  0.28810702     0.04900
C1044       C  0.32425457  0.50235767  0.30398412    -0.07400
C1045       C  0.33654379  0.49461130  0.33732991    -0.08100
C1046       C  0.36011119  0.51780314  0.35694673    -0.02700
C1047       C  0.37310039  0.54769281  0.34216886     0.04100
N1048       N  0.38672614  0.57765277  0.36391466     0.66700
H1049       H  0.38065545  0.57239167  0.29595984     0.15600
H1050       H  0.32688822  0.97104245  0.34820169     0.15300
N1051       N  0.29496589  0.48180507  0.28779453     0.74400
O1052       O  0.40113714  0.60327314  0.35044888    -0.39100
O1053       O  0.37679978  0.58218026  0.39530934    -0.39000
O1054       O  0.30276955  0.95248382  0.27161853    -0.39700
O1055       O  0.26196012  0.48802507  0.29749706    -0.39800
C1056       C  0.30946309  0.92227020  0.06275985    -0.12100
C1057       C  0.33324363  0.90438453  0.08509806     0.04900
C1058       C  0.37182511  0.90633858  0.08030697    -0.07400
C1059       C  0.38491588  0.91783744  0.04910841    -0.08100
C1060       C  0.36022721  0.92865302  0.02314576    -0.02700
C1061       C  0.32221372  0.93272298  0.03118694     0.04100
N1062       N  0.29545891  0.94363891  0.00636347     0.66700
H1063       H  0.27966122  0.92237644  0.06669885     0.15600
H1064       H  0.41459824  0.91865916  0.04533126     0.15300
N1065       N  0.39775294  0.89835288  0.10713032     0.74400
O1066       O  0.27896726  0.92041912  0.48689254    -0.39100
O1067       O  0.28144542  0.97432218  0.51048312    -0.39000
O1068       O  0.42447344  0.87707233  0.10050430    -0.39700
O1069       O  0.39316790  0.91157043  0.13794711    -0.39800
C1070       C  0.03227608  0.60182812  0.33910459    -0.12100
C1071       C  0.06178750  0.61653327  0.35978974     0.04900
C1072       C  0.06589038  0.60595265  0.39404120    -0.07400
C1073       C  0.04250863  0.57972977  0.40529658    -0.08100
C1074       C  0.01613486  0.56265332  0.38254941    -0.02700
C1075       C  0.01046232  0.57502512  0.34940701     0.04100
N1076       N  0.48547934  0.55858757  0.32398181     0.66700
H1077       H  0.02876544  0.60775693  0.31222453     0.15600
H1078       H  0.04703732  0.57083639  0.43106174     0.15300
N1079       N  0.09472122  0.61938275  0.41697311     0.74400
O1080       O  0.45916463  0.57685934  0.31254836    -0.39100
O1081       O  0.49696037  0.53203486  0.30511011    -0.39000
O1082       O  0.08650935  0.64210112  0.44150881    -0.39700
O1083       O  0.12481020  0.60204845  0.41874311    -0.39800
C1084       C  0.38524256  0.57559280  0.99883259    -0.12100
C1085       C  0.39865483  0.54971354  0.02010518     0.04900
C1086       C  0.39552527  0.55613680  0.05640313    -0.07400
C1087       C  0.37606085  0.58609271  0.07012342    -0.08100
C1088       C  0.35783923  0.60957111  0.04854662    -0.02700
C1089       C  0.36518396  0.60527389  0.01239331     0.04100
N1090       N  0.35374145  0.63040939  0.98872279     0.66700
H1091       H  0.38931605  0.57238616  0.47090598     0.15600
H1092       H  0.37249946  0.58945143  0.09811434     0.15300
N1093       N  0.40933581  0.03152835  0.07971778     0.74400
O1094       O  0.37548628  0.65505021  0.98335032    -0.39100
O1095       O  0.32881009  0.62208531  0.96630016    -0.39000
O1096       O  0.38711174  0.01028043  0.09160940    -0.39700
O1097       O  0.44013695  0.03721428  0.09504756    -0.39800
C1098       C  0.06763274  0.91834504  0.33060051    -0.12100
C1099       C  0.03450890  0.90802772  0.34438236     0.04900
C1100       C  0.01902604  0.87528261  0.33235489    -0.07400
C1101       C  0.03440005  0.85561294  0.30385658    -0.08100
C1102       C  0.06681684  0.86641088  0.28841650    -0.02700
C1103       C  0.08495446  0.89720796  0.30412604     0.04100
N1104       N  0.12181963  0.90665841  0.29539321     0.66700
H1105       H  0.08025774  0.94293059  0.34047197     0.15600
H1106       H  0.02247646  0.83027382  0.29582855     0.15300
N1107       N  0.98977130  0.86012525  0.35075465     0.74400
O1108       O  0.12623263  0.93431070  0.27998500    -0.39100
O1109       O  0.14889553  0.89470604  0.31223355    -0.39000
O1110       O  0.46248708  0.84671829  0.33389069    -0.39700
O1111       O  0.99644519  0.85102878  0.38102219    -0.39800
C1112       C  0.02349469  0.56103110  0.02351085    -0.12100
C1113       C  0.04188059  0.52897939  0.01341965     0.04900
C1114       C  0.07209876  0.51830079  0.03348522    -0.07400
C1115       C  0.08345000  0.53963387  0.06278862    -0.08100
C1116       C  0.06456627  0.57155375  0.07416205    -0.02700
C1117       C  0.03477946  0.58253322  0.05292010     0.04100
N1118       N  0.01690056  0.61620513  0.05924272     0.66700
H1119       H  0.00022605  0.56982292  0.50806531     0.15600
H1120       H  0.10867512  0.53133526  0.07549241     0.15300
N1121       N  0.59102808  0.48539306  0.02528921     0.74400
O1122       O  0.02851308  0.64187536  0.54385413    -0.39100
O1123       O  0.98444015  0.61773401  0.07138317    -0.39000
O1124       O  0.12101406  0.98495846  0.00863750    -0.39700
O1125       O  0.58342775  0.45938018  0.04213425    -0.39800
C1126       C  0.08477851  0.59699872  0.60077555     0.86700
C1127       C  0.11187628  0.61743278  0.57979340    -0.53600
C1128       C  0.13478984  0.63913056  0.59883298     0.09600
C1129       C  0.12863082  0.63835929  0.63891718     0.20500
C1130       C  0.10883053  0.57771514  0.62719884    -0.54300
C1131       C  0.13316733  0.59809080  0.64640432     0.09700
C1132       C  0.06332637  0.62615358  0.62411968    -0.53800
C1133       C  0.08603119  0.64874346  0.64425660     0.10300
H1134       H  0.11216494  0.61563247  0.55148420     0.14800
H1135       H  0.14785611  0.65608846  0.65453862     0.00500
H1136       H  0.10716586  0.54978125  0.63007096     0.15100
H1137       H  0.03341062  0.62953686  0.62376778     0.14900
C1138       C  0.07383552  0.68468269  0.66501958     0.30200
C1139       C  0.07377569  0.75141140  0.70046030     0.30200
C1140       C  0.09013568  0.71422942  0.64654815    -0.06000
C1141       C  0.03400216  0.70108592  0.67348671    -0.06800
C1142       C  0.09157713  0.68782405  0.70111871    -0.06700
C1143       C  0.09059758  0.74790286  0.66439321    -0.06000
C1144       C  0.03378946  0.73537866  0.69213076    -0.06800
C1145       C  0.09100801  0.72157059  0.71896110    -0.06700
C1146       C  0.08469901  0.77115357  0.63945084    -0.32100
N1147       N  0.08197903  0.75371812  0.60777610     0.14400
C1148       C  0.08300388  0.71921605  0.61226789    -0.32100
H1149       H  0.07332165  0.69905437  0.59300436     0.16400
C1150       C  0.49647827  0.74395696  0.69854728    -0.31000
N1151       N  0.47453376  0.71725319  0.68424631     0.13200
C1152       C  0.49708270  0.69130729  0.66894967    -0.31000
C1153       C  0.08397214  0.71678791  0.75308971    -0.31300
N1154       N  0.08280091  0.68236235  0.75758543     0.13700
H1155       H  0.07379857  0.73717397  0.77194445     0.16300
C1156       C  0.08579570  0.66480154  0.72602666    -0.31300
H1157       H  0.07616446  0.63837160  0.72056443     0.16300
H1158       H  0.48732457  0.66673766  0.65617627     0.16300
H1159       H  0.07559836  0.79804727  0.64467061     0.16400
H1160       H  0.48608393  0.76790099  0.71243221     0.16300
C1161       C  0.08684913  0.83991838  0.76335625     0.86700
C1162       C  0.11372302  0.81903048  0.78540258    -0.53600
C1163       C  0.13589823  0.79577107  0.76718981     0.09600
C1164       C  0.12954944  0.79597231  0.72693432     0.20500
C1165       C  0.11019014  0.85760909  0.73701559    -0.54300
C1166       C  0.13432778  0.83601966  0.71899915     0.09700
C1167       C  0.06466516  0.81097727  0.74047939    -0.53800
C1168       C  0.08676910  0.78705446  0.72112898     0.10300
H1169       H  0.11419251  0.82152957  0.81372520     0.14800
H1170       H  0.14856014  0.77731634  0.71193072     0.00500
H1171       H  0.10824213  0.88540623  0.73356623     0.15100
H1172       H  0.03467719  0.80876209  0.74057727     0.14900
C1173       C  0.22690163  0.56918242  0.70866544     0.30200
C1174       C  0.16509188  0.58227694  0.66873825     0.30200
C1175       C  0.23314541  0.58924025  0.67685038    -0.06000
C1176       C  0.20655757  0.53609923  0.69378596    -0.06800
C1177       C  0.19516782  0.58962358  0.72721900    -0.06700
C1178       C  0.20232803  0.59594965  0.65724932    -0.06000
C1179       C  0.17456177  0.54179294  0.67286402    -0.06800
C1180       C  0.16342090  0.59620416  0.70707119    -0.06700
C1181       C  0.21494724  0.60789386  0.62726416    -0.32100
N1182       N  0.25225176  0.61368882  0.62957562     0.14400
C1183       C  0.26363481  0.59829746  0.65851551    -0.32100
H1184       H  0.29154530  0.58986101  0.66389134     0.16400
C1185       C  0.15804498  0.50847043  0.66776398    -0.31000
N1186       N  0.17828492  0.98474529  0.68557058     0.13200
C1187       C  0.20733971  0.50164194  0.70149174    -0.31000
C1188       C  0.13419114  0.59526308  0.72964799    -0.31300
N1189       N  0.14670365  0.59243903  0.76254442     0.13700
H1190       H  0.10564976  0.59095042  0.72187315     0.16300
C1191       C  0.18347677  0.58630522  0.76046404    -0.31300
H1192       H  0.20009549  0.57600062  0.78095458     0.16300
H1193       H  0.22766270  0.98894327  0.71728601     0.16300
H1194       H  0.19874459  0.60285043  0.60410612     0.16400
H1195       H  0.13336923  0.00182281  0.65250098     0.16300
C1196       C  0.32887621  0.63476760  0.56651165     0.86700
C1197       C  0.34727418  0.65940553  0.59550995    -0.53600
C1198       C  0.32328499  0.67824599  0.61693585     0.09600
C1199       C  0.28122970  0.67173840  0.60512731     0.20500
C1200       C  0.30106333  0.61244257  0.58546303    -0.54300
C1201       C  0.27623436  0.63100524  0.60590135     0.09700
C1202       C  0.30329098  0.65915686  0.54550757    -0.53800
C1203       C  0.27758492  0.67861489  0.56493759     0.10300
H1204       H  0.37700330  0.65919414  0.60041659     0.14800
H1205       H  0.26096810  0.68714084  0.62198584     0.00500
H1206       H  0.30190898  0.58378018  0.58388477     0.15100
H1207       H  0.30319590  0.66001023  0.51773856     0.14900
C1208       C  0.09153037  0.63383110  0.83893541     0.86700
C1209       C  0.07275331  0.65865056  0.81365633    -0.53600
C1210       C  0.09548591  0.66779792  0.78850326     0.09600
C1211       C  0.13513207  0.65459541  0.79167509     0.20500
C1212       C  0.10992784  0.60362660  0.81542744    -0.54300
C1213       C  0.13200511  0.61482635  0.79078502     0.09700
C1214       C  0.12510809  0.65609879  0.85444732    -0.53800
C1215       C  0.14792903  0.66734689  0.82883657     0.10300
H1216       H  0.04345791  0.66606188  0.81390603     0.14800
H1217       H  0.15288905  0.66296702  0.77051635     0.00500
H1218       H  0.10402267  0.57583078  0.81675165     0.15100
H1219       H  0.12924179  0.66332191  0.88188250     0.14900
C1220       C  0.33561105  0.73229304  0.71862707     0.30200
C1221       C  0.33518839  0.69772502  0.65289131     0.30200
C1222       C  0.31908651  0.75241596  0.68940450    -0.06000
C1223       C  0.37557944  0.72365366  0.70302961    -0.06800
C1224       C  0.31870276  0.69584860  0.71502622    -0.06700
C1225       C  0.31843443  0.73460885  0.65607357    -0.06000
C1226       C  0.37533505  0.70546956  0.66896122    -0.06800
C1227       C  0.31880338  0.67824440  0.68169226    -0.06700
C1228       C  0.32666641  0.75939736  0.63338702    -0.32100
N1229       N  0.33129923  0.79136244  0.65029951     0.14400
C1230       C  0.32840407  0.78674751  0.68439841    -0.32100
H1231       H  0.33894120  0.80541056  0.70470444     0.16400
C1232       C  0.41238681  0.70124414  0.65919974    -0.31000
N1233       N  0.43483061  0.71627359  0.68508121     0.13200
C1234       C  0.41278718  0.73008677  0.71166764    -0.31000
C1235       C  0.32699190  0.64338143  0.68637411    -0.31300
N1236       N  0.32953120  0.63828349  0.72041293     0.13700
H1237       H  0.33692547  0.62435402  0.66608615     0.16300
C1238       C  0.32614007  0.67035332  0.73763843    -0.31300
H1239       H  0.33605013  0.67576502  0.76391395     0.16300
H1240       H  0.42312406  0.74377132  0.73545557     0.16300
H1241       H  0.33620776  0.75315951  0.60728502     0.16400
H1242       H  0.42236889  0.68904583  0.63468762     0.16300
C1243       C  0.31540824  0.87445509  0.60254437     0.86700
C1244       C  0.29852185  0.84961058  0.57293374    -0.53600
C1245       C  0.27872409  0.82338228  0.58423093     0.09600
C1246       C  0.27689267  0.82333941  0.62353909     0.20500
C1247       C  0.28259182  0.88689222  0.62626291    -0.54300
C1248       C  0.26216515  0.85987057  0.63694027     0.09700
C1249       C  0.33841311  0.84863662  0.62440061    -0.53800
C1250       C  0.31727111  0.82214603  0.63525288     0.10300
H1251       H  0.30297240  0.85179964  0.54534151     0.14800
H1252       H  0.26057995  0.80100203  0.63194466     0.00500
H1253       H  0.27721447  0.91439387  0.63375094     0.15100
H1254       H  0.36798184  0.84876970  0.62925910     0.14900
C1255       C  0.31512370  0.55582128  0.76806471     0.86700
C1256       C  0.29612565  0.58019351  0.79671948    -0.53600
C1257       C  0.27662633  0.60675048  0.78466732     0.09600
C1258       C  0.27523362  0.60672118  0.74539751     0.20500
C1259       C  0.28273044  0.54262839  0.74344489    -0.54300
C1260       C  0.26143721  0.56997267  0.73191797     0.09700
C1261       C  0.33691947  0.58080026  0.74566279    -0.53800
C1262       C  0.31557304  0.60766787  0.73477023     0.10300
H1263       H  0.29961530  0.57795194  0.82454569     0.14800
H1264       H  0.25853321  0.62921914  0.73646841     0.00500
H1265       H  0.27824025  0.51524138  0.73531623     0.15100
H1266       H  0.36646876  0.57859101  0.74039313     0.14900
C1267       C  0.16628573  0.85065911  0.69783502     0.30200
C1268       C  0.22782392  0.86157144  0.65940648     0.30200
C1269       C  0.16458455  0.83628987  0.65984527    -0.06000
C1270       C  0.17537650  0.89082100  0.69346544    -0.06800
C1271       C  0.20336712  0.83626132  0.71063360    -0.06700
C1272       C  0.19621385  0.84177643  0.64024142    -0.06000
C1273       C  0.20736772  0.89548827  0.67334670    -0.06800
C1274       C  0.23422362  0.84178641  0.69170465    -0.06700
C1275       C  0.18399673  0.84608292  0.60699261    -0.32100
N1276       N  0.14709218  0.84165902  0.60457923     0.14400
C1277       C  0.13506515  0.83866890  0.63716226    -0.32100
H1278       H  0.10668299  0.84394797  0.64477083     0.16400
C1279       C  0.20771667  0.92985107  0.66510942    -0.31000
N1280       N  0.17837180  0.94751707  0.67990536     0.13200
C1281       C  0.15831724  0.92443558  0.69739952    -0.31000
C1282       C  0.26463343  0.83253910  0.71129348    -0.31300
N1283       N  0.25304419  0.81818825  0.74033560     0.13700
H1284       H  0.29251711  0.84027768  0.70671085     0.16300
C1285       C  0.21576697  0.82496208  0.74138724    -0.31300
H1286       H  0.19934360  0.83082114  0.76426860     0.16300
H1287       H  0.13322779  0.93176415  0.71140520     0.16300
H1288       H  0.20030332  0.85633513  0.58689785     0.16400
H1289       H  0.22779472  0.94209635  0.64968745     0.16300
C1290       C  0.09160294  0.80259624  0.52721698     0.86700
C1291       C  0.07249841  0.77814754  0.55167392    -0.53600
C1292       C  0.09507036  0.76804862  0.57734501     0.09600
C1293       C  0.13488726  0.78007898  0.57540941     0.20500
C1294       C  0.10948618  0.83205057  0.55151747    -0.54300
C1295       C  0.13177619  0.81993951  0.57632697     0.09700
C1296       C  0.12533908  0.77932246  0.51259980    -0.53800
C1297       C  0.14811594  0.76726973  0.53864768     0.10300
H1298       H  0.04364345  0.77029822  0.55008331     0.14800
H1299       H  0.15254054  0.77107163  0.59698476     0.00500
H1300       H  0.10355353  0.86004403  0.55027202     0.15100
H1301       H  0.12957288  0.77229446  0.48518879     0.14900
C1302       C  0.32815288  0.79378757  0.80634206     0.86700
C1303       C  0.34739052  0.76955945  0.77735577    -0.53600
C1304       C  0.32371079  0.75179761  0.75452760     0.09600
C1305       C  0.28149438  0.75894446  0.76505340     0.20500
C1306       C  0.30066930  0.81736389  0.78669594    -0.54300
C1307       C  0.27651654  0.79984772  0.76471994     0.09700
C1308       C  0.30243482  0.76971357  0.82559048    -0.53800
C1309       C  0.27733420  0.75137399  0.80499605     0.10300
H1310       H  0.37721494  0.76916260  0.77368352     0.14800
H1311       H  0.26149898  0.74436562  0.74725359     0.00500
H1312       H  0.30120918  0.84602247  0.78900357     0.15100
H1313       H  0.30136330  0.76879921  0.85326569     0.14900
C1314       C  0.24516621  0.70125525  0.54900243     0.30200
C1315       C  0.18297293  0.74298080  0.53691463     0.30200
C1316       C  0.24655572  0.73970905  0.56350469    -0.06000
C1317       C  0.23552931  0.70651426  0.50928095    -0.06800
C1318       C  0.20781302  0.68988706  0.56217050    -0.06700
C1319       C  0.21503101  0.76077207  0.55725993    -0.06000
C1320       C  0.20341090  0.72804813  0.50406126    -0.06800
C1321       C  0.17697031  0.71026623  0.55618308    -0.06700
C1322       C  0.22727855  0.79430588  0.55501863    -0.32100
N1323       N  0.26391807  0.79546152  0.56183563     0.14400
C1324       C  0.27606766  0.76202290  0.56413015    -0.32100
H1325       H  0.30475368  0.75393208  0.56132509     0.16400
C1326       C  0.20172931  0.73506697  0.96986399    -0.31000
N1327       N  0.23066011  0.71869378  0.95291101     0.13200
C1328       C  0.25137314  0.70085808  0.97616752    -0.31000
C1329       C  0.14676495  0.69248656  0.56673006    -0.31300
N1330       N  0.15849357  0.66338731  0.58215742     0.13700
H1331       H  0.11870158  0.69817296  0.55917391     0.16300
C1332       C  0.19545940  0.66019717  0.57513704    -0.31300
H1333       H  0.21159192  0.63659441  0.57080217     0.16300
H1334       H  0.27584453  0.68503390  0.96939796     0.16300
H1335       H  0.21118027  0.81579556  0.54553370     0.16400
H1336       H  0.18074145  0.75061852  0.95755996     0.16300
C1337       C  0.24494807  0.72989211  0.82017424     0.30200
C1338       C  0.18260904  0.69062831  0.83124621     0.30200
C1339       C  0.24578220  0.69163227  0.80531138    -0.06000
C1340       C  0.23575361  0.72469644  0.85980421    -0.06800
C1341       C  0.20770287  0.74291656  0.80674047    -0.06700
C1342       C  0.21415938  0.67181443  0.81112018    -0.06000
C1343       C  0.20351035  0.70437160  0.86442990    -0.06800
C1344       C  0.17668511  0.72377914  0.81220222    -0.06700
C1345       C  0.22585707  0.63777196  0.81310991    -0.32100
N1346       N  0.26229683  0.63524815  0.80663145     0.14400
C1347       C  0.27496100  0.66813916  0.80476121    -0.32100
H1348       H  0.30374117  0.67497203  0.80830720     0.16400
C1349       C  0.20165016  0.69756427  0.89860608    -0.31000
N1350       N  0.23064710  0.71295360  0.91618154     0.13200
C1351       C  0.25152586  0.72995200  0.89334027    -0.31000
C1352       C  0.14678006  0.74248591  0.80047521    -0.31300
N1353       N  0.15901841  0.77079901  0.78482795     0.13700
H1354       H  0.11862609  0.73795419  0.80724397     0.16300
C1355       C  0.19590633  0.77261119  0.79269951    -0.31300
H1356       H  0.21256056  0.79571108  0.79655951     0.16300
H1357       H  0.27602179  0.74495264  0.90072473     0.16300
H1358       H  0.20963115  0.61685834  0.82226462     0.16400
H1359       H  0.18045829  0.68292806  0.91049649     0.16300
O1360       O  0.48938116  0.50694876  0.48233227    -0.80000
O1361       O  0.41376708  0.51328830  0.89010192    -0.80000
O1362       O  0.99636669  0.52284632  0.92302401    -0.80000
O1363       O  0.40600481  0.51003763  0.96964678    -0.79900
O1364       O  0.48557570  0.50822943  0.86889984    -0.80100
O1365       O  0.43091689  0.49289950  0.51898643    -0.80000
O1366       O  0.36784856  0.48362024  0.90614203    -0.80000
O1367       O  0.04446695  0.98682206  0.96264998    -0.80000
C1368       C  0.02518948  0.50557664  0.98522106     1.09700
C1369       C  0.38004403  0.50647333  0.88757825     1.09600
C1370       C  0.99778549  0.53018468  0.89209563     1.09800
C1371       C  0.41257288  0.51590331  0.00277314     1.09600
O1372       O  0.41022301  0.93208154  0.48327136    -0.80000
O1373       O  0.47850898  0.93539654  0.85811748    -0.80000
O1374       O  0.01069825  0.92392846  0.94494566    -0.80000
O1375       O  0.39488569  0.91611299  0.91487689    -0.79900
O1376       O  0.40472222  0.93887107  0.86487117    -0.80000
O1377       O  0.48273274  0.93310520  0.49444658    -0.80000
O1378       O  0.35745307  0.95602093  0.96872500    -0.79900
O1379       O  0.02744070  0.95466010  0.89017521    -0.80000
Co1380     Co  0.44844137  0.97010346  0.97591328     1.51500
Co1381     Co  0.44543381  0.97378717  0.87327991     1.51700
Co1382     Co  0.00180530  0.97245847  0.93495549     1.51600
Co1383     Co  0.40114537  0.96224569  0.94147052     1.51500
O1384       O  0.45257655  0.96022195  0.92219313    -1.41900
C1385       C  0.37587561  0.93879936  0.99004473     1.09700
C1386       C  0.01263554  0.93374846  0.86607329     1.09800
C1387       C  0.00390574  0.91395214  0.97426116     1.09700
C1388       C  0.39560995  0.91313836  0.88179287     1.09700
C1389       C  0.37305477  0.85192889  0.88120067    -0.12100
C1390       C  0.38419124  0.87984904  0.86238575     0.04900
C1391       C  0.38574459  0.87444963  0.82560372    -0.07400
C1392       C  0.37280854  0.84306869  0.80893816    -0.08100
C1393       C  0.35543665  0.81769525  0.82754365    -0.02700
C1394       C  0.35934244  0.82077751  0.86439557     0.04100
N1395       N  0.35246993  0.79240595  0.88539953     0.66700
H1396       H  0.37481269  0.85418186  0.90939918     0.15600
H1397       H  0.37237683  0.84040018  0.78068271     0.15300
N1398       N  0.39895621  0.90069037  0.80437626     0.74400
O1399       O  0.37704125  0.76853700  0.88721998    -0.39100
O1400       O  0.32876329  0.79681311  0.90930664    -0.40600
O1401       O  0.42922793  0.89528845  0.78846930    -0.39700
O1402       O  0.37624541  0.92332782  0.79403302    -0.39800
C1403       C  0.05485379  0.86906359  0.46608483    -0.12100
C1404       C  0.02239206  0.88092868  0.48379984     0.04900
C1405       C  0.00899368  0.86103524  0.50971896    -0.07400
C1406       C  0.02920164  0.83172624  0.51928781    -0.08100
C1407       C  0.06381365  0.82117763  0.50403973    -0.02700
C1408       C  0.07581596  0.84010386  0.47620959     0.04100
N1409       N  0.11080447  0.83262761  0.45994170     0.66700
H1410       H  0.06555451  0.88371199  0.44549602     0.15600
H1411       H  0.01904244  0.82023652  0.54194257     0.15300
N1412       N  0.47655281  0.87175825  0.52886410     0.74400
O1413       O  0.11148456  0.81478581  0.43085885    -0.39100
O1414       O  0.13835333  0.85140802  0.46928109    -0.39000
O1415       O  0.44683030  0.85502027  0.02299742    -0.39700
O1416       O  0.48032526  0.89093769  0.55694445    -0.39800
C1417       C  0.36868665  0.54973917  0.80643804    -0.12100
C1418       C  0.33963057  0.53127310  0.78811743     0.04900
C1419       C  0.32425259  0.50236438  0.80399000    -0.07400
C1420       C  0.33654238  0.49461527  0.83733463    -0.08100
C1421       C  0.36010584  0.51780799  0.85695499    -0.02700
C1422       C  0.37308802  0.54770382  0.84218371     0.04100
N1423       N  0.38670982  0.57766144  0.86393542     0.66700
H1424       H  0.38063414  0.57241593  0.79598093     0.15600
H1425       H  0.32689734  0.97103519  0.84819019     0.15300
N1426       N  0.29496945  0.48180796  0.78779587     0.74400
O1427       O  0.40111595  0.60328765  0.85047536    -0.39100
O1428       O  0.37678566  0.58217956  0.89533125    -0.39000
O1429       O  0.30279732  0.95248709  0.77158904    -0.39700
O1430       O  0.26196363  0.48800925  0.79750752    -0.39800
C1431       C  0.30946705  0.92227741  0.56276664    -0.12100
C1432       C  0.33324613  0.90438521  0.58510104     0.04900
C1433       C  0.37182767  0.90633291  0.58030654    -0.07400
C1434       C  0.38491812  0.91783508  0.54910942    -0.08100
C1435       C  0.36022972  0.92865846  0.52315037    -0.02700
C1436       C  0.32221738  0.93273307  0.53119467     0.04100
N1437       N  0.29546272  0.94365739  0.50637513     0.66700
H1438       H  0.27966538  0.92238751  0.56670727     0.15600
H1439       H  0.41460027  0.91865227  0.54533018     0.15300
N1440       N  0.39775683  0.89833522  0.60712440     0.74400
O1441       O  0.27897139  0.92039523  0.98688090    -0.39100
O1442       O  0.28143376  0.97430080  0.01046710    -0.39000
O1443       O  0.42446448  0.87704118  0.60049275    -0.39700
O1444       O  0.39318370  0.91155382  0.63794248    -0.39800
C1445       C  0.03228815  0.60181054  0.83909318    -0.12100
C1446       C  0.06179570  0.61651931  0.85978081     0.04900
C1447       C  0.06589307  0.60594528  0.89403503    -0.07400
C1448       C  0.04251033  0.57972356  0.90529084    -0.08100
C1449       C  0.01613797  0.56264570  0.88254319    -0.02700
C1450       C  0.01046874  0.57501356  0.84939885     0.04100
N1451       N  0.48546277  0.55860628  0.82399120     0.66700
H1452       H  0.02878096  0.60773655  0.81221186     0.15600
H1453       H  0.04703577  0.57083346  0.93105776     0.15300
N1454       N  0.09471907  0.61938046  0.91696973     0.74400
O1455       O  0.45914554  0.57688466  0.81257195    -0.39100
O1456       O  0.49693410  0.53205727  0.80510856    -0.39000
O1457       O  0.08650139  0.64210190  0.94150091    -0.39700
O1458       O  0.12480822  0.60204778  0.91874783    -0.39800
C1459       C  0.38522753  0.57558802  0.49881632    -0.12100
C1460       C  0.39866093  0.54972290  0.52009509     0.04900
C1461       C  0.39555145  0.55616297  0.55639314    -0.07400
C1462       C  0.37608091  0.58611720  0.57010921    -0.08100
C1463       C  0.35783997  0.60958096  0.54852938    -0.02700
C1464       C  0.36516439  0.60526751  0.51237247     0.04100
N1465       N  0.35368168  0.63037594  0.48868914     0.66700
H1466       H  0.38934958  0.57240347  0.97092446     0.15600
H1467       H  0.37253223  0.58948627  0.59810131     0.15300
N1468       N  0.40936996  0.03155378  0.57971916     0.74400
O1469       O  0.37541069  0.65501339  0.48326577    -0.39100
O1470       O  0.32872292  0.62202564  0.46630227    -0.39000
O1471       O  0.38715472  0.01031098  0.59163145    -0.39700
O1472       O  0.44017895  0.03724722  0.59503199    -0.39800
C1473       C  0.06762907  0.91834789  0.83059413    -0.12100
C1474       C  0.03450568  0.90803052  0.84437691     0.04900
C1475       C  0.01901993  0.87528757  0.83234562    -0.07400
C1476       C  0.03439242  0.85561933  0.80384577    -0.08100
C1477       C  0.06680996  0.86641625  0.78840655    -0.02700
C1478       C  0.08494844  0.89721258  0.80411675     0.04100
N1479       N  0.12181216  0.90666443  0.79538086     0.66700
H1480       H  0.08025538  0.94293239  0.84046681     0.15600
H1481       H  0.02246692  0.83028148  0.79581609     0.15300
N1482       N  0.98976256  0.86013059  0.85074206     0.74400
O1483       O  0.12622249  0.93431843  0.77997474    -0.39100
O1484       O  0.14889076  0.89470989  0.81221603    -0.39000
O1485       O  0.46248524  0.84670272  0.83388453    -0.39700
O1486       O  0.99643634  0.85102267  0.88100544    -0.39800
C1487       C  0.02350071  0.56103387  0.52350414    -0.12100
C1488       C  0.04188822  0.52898295  0.51341311     0.04900
C1489       C  0.07210845  0.51830639  0.53347682    -0.07400
C1490       C  0.08345815  0.53963934  0.56278036    -0.08100
C1491       C  0.06457061  0.57155667  0.57415571    -0.02700
C1492       C  0.03478384  0.58253572  0.55291384     0.04100
N1493       N  0.01690331  0.61620676  0.55923731     0.66700
H1494       H  0.00022089  0.56982139  0.00807169     0.15600
H1495       H  0.10868474  0.53134263  0.57548301     0.15300
N1496       N  0.59100074  0.48536512  0.52531080     0.74400
O1497       O  0.02851084  0.64187239  0.04385786    -0.39100
O1498       O  0.98444254  0.61773383  0.57137690    -0.39000
O1499       O  0.12100273  0.98492518  0.50866118    -0.39700
O1500       O  0.58337342  0.45935779  0.54215341    -0.39800
C1501       C  0.58477718  0.09699608  0.10078065     0.86700
C1502       C  0.61187551  0.11742750  0.07979652    -0.53600
C1503       C  0.63478969  0.13912647  0.09883426     0.09600
C1504       C  0.62863051  0.13835904  0.13891912     0.20500
C1505       C  0.60882984  0.07771448  0.12720545    -0.54300
C1506       C  0.63316576  0.09809178  0.14641132     0.09700
C1507       C  0.56332618  0.12615322  0.12412301    -0.53800
C1508       C  0.58603177  0.14874416  0.14425770     0.10300
H1509       H  0.61216398  0.11562465  0.05148728     0.14800
H1510       H  0.64785584  0.15608951  0.15453899     0.00500
H1511       H  0.60716477  0.04978113  0.13007962     0.15100
H1512       H  0.53341045  0.12953662  0.12377200     0.14900
C1513       C  0.57383790  0.18468331  0.16502074     0.30200
C1514       C  0.57377724  0.25141123  0.20046330     0.30200
C1515       C  0.59013453  0.21423097  0.14654866    -0.06000
C1516       C  0.53400456  0.20108423  0.17349225    -0.06800
C1517       C  0.59158536  0.18782500  0.20111682    -0.06700
C1518       C  0.59059523  0.24790442  0.16439406    -0.06000
C1519       C  0.53379140  0.23537659  0.19213692    -0.06800
C1520       C  0.59101303  0.22157023  0.21896151    -0.06700
C1521       C  0.58469304  0.27115458  0.13945155    -0.32100
N1522       N  0.58197423  0.25371874  0.10777668     0.14400
C1523       C  0.58300142  0.21921686  0.11226876    -0.32100
H1524       H  0.57331995  0.19905454  0.09300552     0.16400
C1525       C  0.99648183  0.24396270  0.19855453    -0.31000
N1526       N  0.97453795  0.21725827  0.18425353     0.13200
C1527       C  0.99708733  0.19131335  0.16895631    -0.31000
C1528       C  0.58398056  0.21678313  0.25308992    -0.31300
N1529       N  0.58281880  0.18235628  0.25758223     0.13700
H1530       H  0.57380553  0.23716583  0.27194741     0.16300
C1531       C  0.58581519  0.16479842  0.22602252    -0.31300
H1532       H  0.57619396  0.13836570  0.22055840     0.16300
H1533       H  0.98732981  0.16674322  0.15618353     0.16300
H1534       H  0.57558962  0.29804761  0.14467114     0.16400
H1535       H  0.98608696  0.26790592  0.21244059     0.16300
C1536       C  0.58685424  0.33991379  0.26336505     0.86700
C1537       C  0.61372929  0.31902329  0.28540794    -0.53600
C1538       C  0.63590333  0.29576554  0.26719153     0.09600
C1539       C  0.62955240  0.29597121  0.22693689     0.20500
C1540       C  0.61019397  0.35760751  0.23702530    -0.54300
C1541       C  0.63433084  0.33601973  0.21900610     0.09700
C1542       C  0.56466896  0.31097481  0.24048656    -0.53800
C1543       C  0.58677169  0.28705369  0.22113284     0.10300
H1544       H  0.61420025  0.32151926  0.31373055     0.14800
H1545       H  0.64856233  0.27731666  0.21193066     0.00500
H1546       H  0.60824671  0.38540545  0.23357923     0.15100
H1547       H  0.53468106  0.30875933  0.24058617     0.14900
C1548       C  0.72690092  0.06918732  0.20867549     0.30200
C1549       C  0.66509026  0.08228036  0.16874824     0.30200
C1550       C  0.73314100  0.08926150  0.17687107    -0.06000
C1551       C  0.70656935  0.03610324  0.19378038    -0.06800
C1552       C  0.69516001  0.08961323  0.22723314    -0.06700
C1553       C  0.70232308  0.09597118  0.15727026    -0.06000
C1554       C  0.67457334  0.04179625  0.17285819    -0.06800
C1555       C  0.66341177  0.09619171  0.20708631    -0.06700
C1556       C  0.71494357  0.10791139  0.12728351    -0.32100
N1557       N  0.75224798  0.11370468  0.12959394     0.14400
C1558       C  0.76363045  0.09831252  0.15853313    -0.32100
H1559       H  0.79153928  0.08986707  0.16390385     0.16400
C1560       C  0.65805252  0.00847494  0.16776513    -0.31000
N1561       N  0.67828169  0.48474691  0.18557264     0.13200
C1562       C  0.70734754  0.00164758  0.20149185    -0.31000
C1563       C  0.63418295  0.09523854  0.22966327    -0.31300
N1564       N  0.64669745  0.09241632  0.26255998     0.13700
H1565       H  0.60564114  0.09092437  0.22188954     0.16300
C1566       C  0.68347153  0.08628796  0.26047753    -0.31300
H1567       H  0.70009477  0.07598899  0.28096815     0.16300
H1568       H  0.72765873  0.48894469  0.21728896     0.16300
H1569       H  0.69874387  0.10285961  0.10412471     0.16400
H1570       H  0.63336647  0.50182521  0.15250239     0.16300
C1571       C  0.82887544  0.13476192  0.06652508     0.86700
C1572       C  0.84727611  0.15940110  0.09552028    -0.53600
C1573       C  0.82328897  0.17824884  0.11694232     0.09600
C1574       C  0.78123277  0.17174448  0.10513439     0.20500
C1575       C  0.80105799  0.11244388  0.08547937    -0.54300
C1576       C  0.77623192  0.13101307  0.10591529     0.09700
C1577       C  0.80329274  0.15914900  0.04551574    -0.53800
C1578       C  0.77758839  0.17861325  0.06494286     0.10300
H1579       H  0.87700498  0.15918479  0.10042884     0.14800
H1580       H  0.76097274  0.18715191  0.12199051     0.00500
H1581       H  0.80189814  0.08378155  0.08390514     0.15100
H1582       H  0.80319354  0.15998946  0.01774479     0.14900
C1583       C  0.59152771  0.13383566  0.33894126     0.86700
C1584       C  0.57275851  0.15865225  0.31365489    -0.53600
C1585       C  0.59549595  0.16778908  0.28850096     0.09600
C1586       C  0.63513912  0.15458023  0.29167837     0.20500
C1587       C  0.60992129  0.10362286  0.31544095    -0.54300
C1588       C  0.63200365  0.11481220  0.29079705     0.09700
C1589       C  0.62510808  0.15610146  0.35445046    -0.53800
C1590       C  0.64793408  0.16733948  0.32883824     0.10300
H1591       H  0.54346529  0.16607170  0.31390253     0.14800
H1592       H  0.65290014  0.16294365  0.27051878     0.00500
H1593       H  0.60400918  0.07582918  0.31677054     0.15100
H1594       H  0.62923787  0.16333273  0.38188468     0.14900
C1595       C  0.83561504  0.23229814  0.21863161     0.30200
C1596       C  0.83519375  0.19772879  0.15289689     0.30200
C1597       C  0.81909463  0.25242223  0.18940812    -0.06000
C1598       C  0.87558369  0.22365480  0.20303683    -0.06800
C1599       C  0.81870110  0.19585659  0.21503040    -0.06700
C1600       C  0.81844414  0.23461496  0.15607725    -0.06000
C1601       C  0.87533998  0.20547011  0.16896879    -0.06800
C1602       C  0.81880503  0.17825050  0.18169776    -0.06700
C1603       C  0.82668106  0.25940334  0.13339159    -0.32100
N1604       N  0.83131252  0.29136878  0.15030436     0.14400
C1605       C  0.82841464  0.28675328  0.18440291    -0.32100
H1606       H  0.83895114  0.30541582  0.20470976     0.16400
C1607       C  0.91239180  0.20124573  0.15920756    -0.31000
N1608       N  0.93483498  0.21627650  0.18508891     0.13200
C1609       C  0.91279108  0.23008939  0.21167501    -0.31000
C1610       C  0.82698956  0.14338736  0.18638345    -0.31300
N1611       N  0.82951951  0.13829216  0.22042346     0.13700
H1612       H  0.83692295  0.12435676  0.16609826     0.16300
C1613       C  0.82612692  0.17036291  0.23764641    -0.31300
H1614       H  0.83602645  0.17577596  0.26392483     0.16300
H1615       H  0.92312735  0.24377608  0.23546207     0.16300
H1616       H  0.83622675  0.25316516  0.10729092     0.16400
H1617       H  0.92237401  0.18904855  0.13469497     0.16300
C1618       C  0.81540683  0.37445679  0.10254504     0.86700
C1619       C  0.79851823  0.34960834  0.07293885    -0.53600
C1620       C  0.77872460  0.32338008  0.08424137     0.09600
C1621       C  0.77689870  0.32334122  0.12355016     0.20500
C1622       C  0.78259259  0.38689439  0.12626621    -0.54300
C1623       C  0.76216951  0.35987279  0.13694899     0.09700
C1624       C  0.83841721  0.34864165  0.12440049    -0.53800
C1625       C  0.81727910  0.32215121  0.13525881     0.10300
H1626       H  0.80296450  0.35179460  0.04534552     0.14800
H1627       H  0.76058902  0.30100381  0.13195988     0.00500
H1628       H  0.77721240  0.41439645  0.13375000     0.15100
H1629       H  0.86798733  0.34877551  0.12925177     0.14900
C1630       C  0.81512912  0.05581863  0.26806413     0.86700
C1631       C  0.79613533  0.08018368  0.29672729    -0.53600
C1632       C  0.77663096  0.10674265  0.28468466     0.09600
C1633       C  0.77523042  0.10672265  0.24541571     0.20500
C1634       C  0.78273364  0.04262975  0.24344583    -0.54300
C1635       C  0.76143568  0.06997574  0.23192897     0.09700
C1636       C  0.83691864  0.08080503  0.24566488    -0.53800
C1637       C  0.81556777  0.10767469  0.23478240     0.10300
H1638       H  0.79963167  0.07793621  0.32455190     0.14800
H1639       H  0.75852604  0.12922177  0.23649441     0.00500
H1640       H  0.77824804  0.01524385  0.23530878     0.15100
H1641       H  0.86646624  0.07859744  0.24038709     0.14900
C1642       C  0.66628871  0.35066099  0.19784311     0.30200
C1643       C  0.72782748  0.36157398  0.15941489     0.30200
C1644       C  0.66459049  0.33628740  0.15985476    -0.06000
C1645       C  0.67537602  0.39082286  0.19346949    -0.06800
C1646       C  0.70337093  0.33626855  0.21064484    -0.06700
C1647       C  0.69621968  0.34177482  0.14025095    -0.06000
C1648       C  0.70736737  0.39549055  0.17335091    -0.06800
C1649       C  0.73422737  0.34179304  0.19171564    -0.06700
C1650       C  0.68400243  0.34607873  0.10700174    -0.32100
N1651       N  0.64709841  0.34165214  0.10458851     0.14400
C1652       C  0.63507118  0.33866160  0.13717122    -0.32100
H1653       H  0.60668884  0.34393933  0.14477944     0.16400
C1654       C  0.70771473  0.42985301  0.16511232    -0.31000
N1655       N  0.67836897  0.44751858  0.17990750     0.13200
C1656       C  0.65831581  0.42443700  0.19740311    -0.31000
C1657       C  0.76463683  0.33254080  0.21130204    -0.31300
N1658       N  0.75304696  0.31818989  0.24034387     0.13700
H1659       H  0.79252121  0.34027586  0.20671808     0.16300
C1660       C  0.71577028  0.32496665  0.24139747    -0.31300
H1661       H  0.69934684  0.33082122  0.26427895     0.16300
H1662       H  0.63322717  0.43176514  0.21141046     0.16300
H1663       H  0.70030793  0.35633229  0.08690697     0.16400
H1664       H  0.72779323  0.44209859  0.14969106     0.16300
C1665       C  0.59160997  0.30260009  0.02722182     0.86700
C1666       C  0.57250140  0.27815072  0.05167537    -0.53600
C1667       C  0.59507031  0.26804798  0.07734676     0.09600
C1668       C  0.63488891  0.28007456  0.07541397     0.20500
C1669       C  0.60949474  0.33205080  0.05152531    -0.54300
C1670       C  0.63178184  0.31993563  0.07633460     0.09700
C1671       C  0.62534474  0.27932466  0.01260414    -0.53800
C1672       C  0.64811872  0.26726712  0.03865175     0.10300
H1673       H  0.54364568  0.27030396  0.05008271     0.14800
H1674       H  0.65253990  0.27106391  0.09698932     0.00500
H1675       H  0.60356520  0.36004507  0.05028193     0.15100
H1676       H  0.62958036  0.27230018  0.98519278     0.14900
C1677       C  0.82815630  0.29378887  0.30634766     0.86700
C1678       C  0.84739475  0.26956389  0.27735983    -0.53600
C1679       C  0.82371549  0.25180213  0.25453148     0.09600
C1680       C  0.78149941  0.25894535  0.26505770     0.20500
C1681       C  0.80067023  0.31736473  0.28670435    -0.54300
C1682       C  0.77651891  0.29984856  0.26472744     0.09700
C1683       C  0.80244028  0.26971137  0.32559498    -0.53800
C1684       C  0.77734056  0.25137046  0.30499915     0.10300
H1685       H  0.87721907  0.26916877  0.27368715     0.14800
H1686       H  0.76150494  0.24436672  0.24725672     0.00500
H1687       H  0.80120779  0.34602340  0.28901380     0.15100
H1688       H  0.80137066  0.26879595  0.35327032     0.14900
C1689       C  0.74516905  0.20125139  0.04900534     0.30200
C1690       C  0.68297552  0.24297734  0.03691766     0.30200
C1691       C  0.74655572  0.23970392  0.06351208    -0.06000
C1692       C  0.73553541  0.20651469  0.00928390    -0.06800
C1693       C  0.70781451  0.18987965  0.06216832    -0.06700
C1694       C  0.71503146  0.26076701  0.05726679    -0.06000
C1695       C  0.70341686  0.22804852  0.00406414    -0.06800
C1696       C  0.67697201  0.21025998  0.05618204    -0.06700
C1697       C  0.72727865  0.29430151  0.05502968    -0.32100
N1698       N  0.76391733  0.29545692  0.06185019     0.14400
C1699       C  0.77606726  0.26201846  0.06414436    -0.32100
H1700       H  0.80475352  0.25392824  0.06134217     0.16400
C1701       C  0.70172476  0.23507099  0.46986206    -0.31000
N1702       N  0.73065637  0.21869930  0.45290947     0.13200
C1703       C  0.75136850  0.20086207  0.47616505    -0.31000
C1704       C  0.64676635  0.19248201  0.06673106    -0.31300
N1705       N  0.65849418  0.16338116  0.08215623     0.13700
H1706       H  0.61870274  0.19817138  0.05917855     0.16300
C1707       C  0.69545970  0.16018913  0.07513374    -0.31300
H1708       H  0.71159186  0.13658466  0.07080139     0.16300
H1709       H  0.77584158  0.18504051  0.46939529     0.16300
H1710       H  0.71118137  0.31579154  0.04554426     0.16400
H1711       H  0.68073884  0.25062529  0.45755869     0.16300
C1712       C  0.74495387  0.22988597  0.32017428     0.30200
C1713       C  0.68261375  0.19062202  0.33124511     0.30200
C1714       C  0.74579362  0.19162155  0.30532230    -0.06000
C1715       C  0.73575090  0.22470088  0.35980375    -0.06800
C1716       C  0.70771047  0.24290307  0.30672839    -0.06700
C1717       C  0.71416880  0.17180477  0.31112872    -0.06000
C1718       C  0.70350764  0.20437594  0.36442901    -0.06800
C1719       C  0.67669229  0.22376588  0.31219039    -0.06700
C1720       C  0.72586433  0.13776286  0.31312616    -0.32100
N1721       N  0.76230591  0.13523664  0.30665667     0.14400
C1722       C  0.77497193  0.16812756  0.30478663    -0.32100
H1723       H  0.80375205  0.17495964  0.30833902     0.16400
C1724       C  0.70164705  0.19756948  0.39860511    -0.31000
N1725       N  0.73064334  0.21295970  0.41618037     0.13200
C1726       C  0.75152300  0.22995704  0.39333946    -0.31000
C1727       C  0.64678657  0.24247640  0.30047047    -0.31300
N1728       N  0.65902416  0.27079039  0.28482465     0.13700
H1729       H  0.61863363  0.23794854  0.30724638     0.16300
C1730       C  0.69591266  0.27260082  0.29269336    -0.31300
H1731       H  0.71256399  0.29570104  0.29656144     0.16300
H1732       H  0.77602060  0.24495526  0.40072376     0.16300
H1733       H  0.70963395  0.11685036  0.32227718     0.16400
H1734       H  0.68045714  0.18293079  0.41049534     0.16300
O1735       O  0.98937940  0.00695205  0.98233234    -0.80000
O1736       O  0.91376890  0.01328709  0.39010118    -0.80000
O1737       O  0.49636531  0.02285114  0.42302781    -0.80000
O1738       O  0.90600715  0.01003930  0.46964266    -0.79900
O1739       O  0.98557705  0.00822637  0.36890090    -0.80100
O1740       O  0.93091697  0.99289446  0.01898759    -0.80000
O1741       O  0.86784803  0.98362164  0.40613876    -0.80000
O1742       O  0.54446713  0.48681716  0.46264715    -0.80000
C1743       C  0.52519602  0.00557872  0.48521775     1.09700
C1744       C  0.88004602  0.00647297  0.38757411     1.09600
C1745       C  0.49778342  0.03019136  0.39209990     1.09800
C1746       C  0.91257653  0.01590893  0.50276836     1.09600
O1747       O  0.91022139  0.43207753  0.98326777    -0.80000
O1748       O  0.97850853  0.43540411  0.35811821    -0.80000
O1749       O  0.51069426  0.42392588  0.44494556    -0.80000
O1750       O  0.89488355  0.41611820  0.41488136    -0.79900
O1751       O  0.90472159  0.43887576  0.36487528    -0.80000
O1752       O  0.98273144  0.43310807  0.99444795    -0.80000
O1753       O  0.85745499  0.45602879  0.46873108    -0.79900
O1754       O  0.52743900  0.45465849  0.39017681    -0.80000
Co1755     Co  0.94844463  0.47010506  0.47591557     1.51500
Co1756     Co  0.94543258  0.47379336  0.37328314     1.51700
Co1757     Co  0.50180315  0.47245621  0.43495597     1.51600
Co1758     Co  0.90114664  0.46225065  0.44147424     1.51500
O1759       O  0.95257703  0.46022518  0.42219510    -1.41900
C1760       C  0.87587734  0.43880569  0.49004959     1.09700
C1761       C  0.51263504  0.43374509  0.36607611     1.09800
C1762       C  0.50389941  0.41394760  0.47425981     1.09700
C1763       C  0.89560807  0.41314342  0.38179734     1.09700
C1764       C  0.87305801  0.35193127  0.38120500    -0.12100
C1765       C  0.88418943  0.37985383  0.36239037     0.04900
C1766       C  0.88573980  0.37445622  0.32560815    -0.07400
C1767       C  0.87280674  0.34307433  0.30894239    -0.08100
C1768       C  0.85543954  0.31769811  0.32754800    -0.02700
C1769       C  0.85934836  0.32077869  0.36439930     0.04100
N1770       N  0.85248486  0.29240301  0.38540067     0.66700
H1771       H  0.87481915  0.35418285  0.40940336     0.15600
H1772       H  0.87237296  0.34040702  0.28068692     0.15300
N1773       N  0.89894498  0.40069986  0.30438076     0.74400
O1774       O  0.87705912  0.26853533  0.38721176    -0.39100
O1775       O  0.82878351  0.29680373  0.40931291    -0.40600
O1776       O  0.92922009  0.39530649  0.28847761    -0.39700
O1777       O  0.87622823  0.42333067  0.29403455    -0.39800
C1778       C  0.55486569  0.36907321  0.96609187    -0.12100
C1779       C  0.52240162  0.38093619  0.98380414     0.04900
C1780       C  0.50900310  0.36104319  0.00972342    -0.07400
C1781       C  0.52921135  0.33173515  0.01929347    -0.08100
C1782       C  0.56382352  0.32118627  0.00404597    -0.02700
C1783       C  0.57582813  0.34011409  0.97621784     0.04100
N1784       N  0.61081866  0.33263971  0.95995315     0.66700
H1785       H  0.56556740  0.38372259  0.94550422     0.15600
H1786       H  0.51905141  0.32024585  0.04194816     0.15300
N1787       N  0.97656239  0.37177029  0.02887916     0.74400
O1788       O  0.61150134  0.31481011  0.93086375    -0.39100
O1789       O  0.63836953  0.35141203  0.96930548    -0.39000
O1790       O  0.94682034  0.35500922  0.52297336    -0.39700
O1791       O  0.98033717  0.39095735  0.05695451    -0.39800
C1792       C  0.86870218  0.04972282  0.30642150    -0.12100
C1793       C  0.83963867  0.03126332  0.28810624     0.04900
C1794       C  0.82425727  0.00235828  0.30398279    -0.07400
C1795       C  0.83654614  0.99461188  0.33732864    -0.08100
C1796       C  0.86011302  0.01780384  0.35694588    -0.02700
C1797       C  0.87310232  0.04769369  0.34216832     0.04100
N1798       N  0.88672856  0.07765319  0.36391445     0.66700
H1799       H  0.88065665  0.07239361  0.29595973     0.15600
H1800       H  0.82688545  0.47104445  0.34820416     0.15300
N1801       N  0.79497005  0.98180449  0.28779220     0.74400
O1802       O  0.90114193  0.10327265  0.35044914    -0.39100
O1803       O  0.87680092  0.08218131  0.39530872    -0.39000
O1804       O  0.80276284  0.45248491  0.27162418    -0.39700
O1805       O  0.76196377  0.98802268  0.29749412    -0.39800
C1806       C  0.80946080  0.42227059  0.06275746    -0.12100
C1807       C  0.83324087  0.40438569  0.08509665     0.04900
C1808       C  0.87182249  0.40634048  0.08030681    -0.07400
C1809       C  0.88491418  0.41783886  0.04910832    -0.08100
C1810       C  0.86022623  0.42865370  0.02314474    -0.02700
C1811       C  0.82221234  0.43272302  0.03118470     0.04100
N1812       N  0.79545812  0.44363770  0.00636011     0.66700
H1813       H  0.77965882  0.42237642  0.06669564     0.15600
H1814       H  0.91459666  0.41866101  0.04533202     0.15300
N1815       N  0.89774944  0.39835648  0.10713153     0.74400
O1816       O  0.77896624  0.42042323  0.48689572    -0.39100
O1817       O  0.78144628  0.47432549  0.51048814    -0.39000
O1818       O  0.92447228  0.37707833  0.10050677    -0.39700
O1819       O  0.89316170  0.41157356  0.13794810    -0.39800
C1820       C  0.53227746  0.10182814  0.33910393    -0.12100
C1821       C  0.56178797  0.11653392  0.35978986     0.04900
C1822       C  0.56588911  0.10595465  0.39404192    -0.07400
C1823       C  0.54250729  0.07973157  0.40529688    -0.08100
C1824       C  0.51613487  0.06265409  0.38254891    -0.02700
C1825       C  0.51046350  0.07502520  0.34940607     0.04100
N1826       N  0.98548193  0.05858753  0.32398097     0.66700
H1827       H  0.52876787  0.10775640  0.31222360     0.15600
H1828       H  0.54703476  0.07083907  0.43106256     0.15300
N1829       N  0.59471783  0.11938682  0.41697519     0.74400
O1830       O  0.95916716  0.07685815  0.31254594    -0.39100
O1831       O  0.99696503  0.03203507  0.30511011    -0.39000
O1832       O  0.58650341  0.14210616  0.44150924    -0.39700
O1833       O  0.62480723  0.10205365  0.41874813    -0.39800
C1834       C  0.88523991  0.07559171  0.99883235    -0.12100
C1835       C  0.89865330  0.04971321  0.02010532     0.04900
C1836       C  0.89552451  0.05613735  0.05640325    -0.07400
C1837       C  0.87605980  0.08609329  0.07012323    -0.08100
C1838       C  0.85783753  0.10957114  0.04854620    -0.02700
C1839       C  0.86518123  0.10527286  0.01239274     0.04100
N1840       N  0.85373723  0.13040721  0.98872160     0.66700
H1841       H  0.88931718  0.07238700  0.47090525     0.15600
H1842       H  0.87249905  0.08945268  0.09811420     0.15300
N1843       N  0.90933919  0.53153015  0.07971721     0.74400
O1844       O  0.87548128  0.15504809  0.98334739    -0.39100
O1845       O  0.82880499  0.12208201  0.96630021    -0.39000
O1846       O  0.88711586  0.51028194  0.09160940    -0.39700
O1847       O  0.94014047  0.53721685  0.09504648    -0.39800
C1848       C  0.56763203  0.41834260  0.33060317    -0.12100
C1849       C  0.53450705  0.40802606  0.34438344     0.04900
C1850       C  0.51902339  0.37528165  0.33235458    -0.07400
C1851       C  0.53439802  0.35561214  0.30385652    -0.08100
C1852       C  0.56681584  0.36640954  0.28841792    -0.02700
C1853       C  0.58495393  0.39720574  0.30412868     0.04100
N1854       N  0.62181952  0.40665568  0.29539667     0.66700
H1855       H  0.58025759  0.44292755  0.34047562     0.15600
H1856       H  0.52247379  0.33027357  0.29582747     0.15300
N1857       N  0.48976676  0.36012481  0.35075231     0.74400
O1858       O  0.62623350  0.43430823  0.27998912    -0.39100
O1859       O  0.64889485  0.39470230  0.31223704    -0.39000
O1860       O  0.96248402  0.34671816  0.33388789    -0.39700
O1861       O  0.49643828  0.35102742  0.38101992    -0.39800
C1862       C  0.52349503  0.06103130  0.02351088    -0.12100
C1863       C  0.54188012  0.02897904  0.01342020     0.04900
C1864       C  0.57209754  0.01829982  0.03348640    -0.07400
C1865       C  0.58344896  0.03963287  0.06278980    -0.08100
C1866       C  0.56456602  0.07155333  0.07416270    -0.02700
C1867       C  0.53477993  0.08253336  0.05292017     0.04100
N1868       N  0.51690194  0.11620577  0.05924232     0.66700
H1869       H  0.50022275  0.06982168  0.50806748     0.15600
H1870       H  0.60867354  0.03133364  0.07549402     0.15300
N1871       N  0.09102103  0.98538722  0.02529574     0.74400
O1872       O  0.52850595  0.14187566  0.54385733    -0.39100
O1873       O  0.48444162  0.11773568  0.07138294    -0.39000
O1874       O  0.62101922  0.48496799  0.00862833    -0.39700
O1875       O  0.08341533  0.95937564  0.04214057    -0.39800
C1876       C  0.58477907  0.09700038  0.60077414     0.86700
C1877       C  0.61187681  0.11743490  0.57979240    -0.53600
C1878       C  0.63479051  0.13913219  0.59883238     0.09600
C1879       C  0.62863134  0.13836026  0.63891649     0.20500
C1880       C  0.60883103  0.07771624  0.62719702    -0.54300
C1881       C  0.63316780  0.09809158  0.64640284     0.09700
C1882       C  0.56332688  0.12615481  0.62411871    -0.53800
C1883       C  0.58603166  0.14874436  0.64425600     0.10300
H1884       H  0.61216547  0.11563512  0.55148321     0.14800
H1885       H  0.64785662  0.15608915  0.65453828     0.00500
H1886       H  0.60716675  0.04978206  0.63006797     0.15100
H1887       H  0.53341115  0.12953813  0.62376700     0.14900
C1888       C  0.57383581  0.18468347  0.66501909     0.30200
C1889       C  0.57377594  0.25141213  0.70045985     0.30200
C1890       C  0.59013686  0.21423005  0.64654813    -0.06000
C1891       C  0.53400244  0.20108705  0.67348535    -0.06800
C1892       C  0.59157626  0.18782452  0.70111877    -0.06700
C1893       C  0.59059898  0.24790334  0.66439331    -0.06000
C1894       C  0.53378966  0.23537977  0.69212943    -0.06800
C1895       C  0.59100732  0.22157114  0.71896112    -0.06700
C1896       C  0.58470223  0.27115439  0.63945101    -0.32100
N1897       N  0.58198252  0.25371912  0.60777620     0.14400
C1898       C  0.58300612  0.21921699  0.61226776    -0.32100
H1899       H  0.57332386  0.19905562  0.59300393     0.16400
C1900       C  0.99647875  0.24395785  0.69854632    -0.31000
N1901       N  0.97453415  0.21725413  0.68424541     0.13200
C1902       C  0.99708299  0.19130824  0.66894860    -0.31000
C1903       C  0.58397020  0.21678862  0.75308955    -0.31300
N1904       N  0.58279775  0.18236313  0.75758536     0.13700
H1905       H  0.57379650  0.23717492  0.77194399     0.16300
C1906       C  0.58579301  0.16480226  0.72602664    -0.31300
H1907       H  0.57616080  0.13837263  0.72056423     0.16300
H1908       H  0.98732478  0.16673853  0.65617544     0.16300
H1909       H  0.57560272  0.29804840  0.64467078     0.16400
H1910       H  0.98608453  0.26790174  0.71243159     0.16300
C1911       C  0.58684954  0.33992000  0.76335451     0.86700
C1912       C  0.61372332  0.31903247  0.78540128    -0.53600
C1913       C  0.63589830  0.29577256  0.76718894     0.09600
C1914       C  0.62954963  0.29597301  0.72693341     0.20500
C1915       C  0.61019068  0.35760998  0.73701345    -0.54300
C1916       C  0.63432823  0.33602009  0.71899737     0.09700
C1917       C  0.56466543  0.31097856  0.74047820    -0.53800
C1918       C  0.58676931  0.28705525  0.72112831     0.10300
H1919       H  0.61419281  0.32153210  0.81372389     0.14800
H1920       H  0.64856025  0.27731664  0.71193020     0.00500
H1921       H  0.60824267  0.38540695  0.73356341     0.15100
H1922       H  0.53467743  0.30876360  0.74057612     0.14900
C1923       C  0.72690142  0.06918279  0.70866432     0.30200
C1924       C  0.66509215  0.08227745  0.66873666     0.30200
C1925       C  0.73314579  0.08923962  0.67684867    -0.06000
C1926       C  0.70655669  0.03609968  0.69378567    -0.06800
C1927       C  0.69516795  0.08962492  0.72721736    -0.06700
C1928       C  0.70232865  0.09594900  0.65724732    -0.06000
C1929       C  0.67456110  0.04179346  0.67286349    -0.06800
C1930       C  0.66342135  0.09620573  0.70706923    -0.06700
C1931       C  0.71494813  0.10789319  0.62726224    -0.32100
N1932       N  0.75225269  0.11368817  0.62957408     0.14400
C1933       C  0.76363542  0.09829702  0.65851420    -0.32100
H1934       H  0.79154593  0.08986105  0.66389061     0.16400
C1935       C  0.65804364  0.00847121  0.66776423    -0.31000
N1936       N  0.67828718  0.48474498  0.68556945     0.13200
C1937       C  0.70733792  0.00164271  0.70149251    -0.31000
C1938       C  0.63419130  0.09526571  0.72964575    -0.31300
N1939       N  0.64670338  0.09244139  0.76254224     0.13700
H1940       H  0.60564998  0.09095342  0.72187060     0.16300
C1941       C  0.68347640  0.08630701  0.76046232    -0.31300
H1942       H  0.70009458  0.07600198  0.78095299     0.16300
H1943       H  0.72766529  0.48894302  0.71728446     0.16300
H1944       H  0.69874559  0.10285013  0.60410421     0.16400
H1945       H  0.63337080  0.50182244  0.65250061     0.16300
C1946       C  0.82887774  0.13476827  0.56651116     0.86700
C1947       C  0.84727528  0.15940601  0.59550984    -0.53600
C1948       C  0.82328579  0.17824601  0.61693579     0.09600
C1949       C  0.78123065  0.17173833  0.60512684     0.20500
C1950       C  0.80106488  0.11244279  0.58546206    -0.54300
C1951       C  0.77623552  0.13100507  0.60590032     0.09700
C1952       C  0.80329252  0.15915763  0.54550720    -0.53800
C1953       C  0.77758621  0.17861536  0.56493721     0.10300
H1954       H  0.87700436  0.15919483  0.60041664     0.14800
H1955       H  0.76096884  0.18714046  0.62198539     0.00500
H1956       H  0.80191081  0.08378039  0.58388351     0.15100
H1957       H  0.80319781  0.16001145  0.51773824     0.14900
C1958       C  0.59152978  0.13383040  0.83893425     0.86700
C1959       C  0.57275164  0.15865003  0.81365594    -0.53600
C1960       C  0.59548365  0.16779875  0.78850296     0.09600
C1961       C  0.63513022  0.15459709  0.79167410     0.20500
C1962       C  0.60992769  0.10362690  0.81542546    -0.54300
C1963       C  0.63200428  0.11482785  0.79078315     0.09700
C1964       C  0.62510714  0.15609860  0.85444628    -0.53800
C1965       C  0.64792744  0.16734797  0.82883566     0.10300
H1966       H  0.54345600  0.16606045  0.81390598     0.14800
H1967       H  0.65288673  0.16296960  0.77051543     0.00500
H1968       H  0.60402339  0.07583083  0.81674913     0.15100
H1969       H  0.62924118  0.16332085  0.88188157     0.14900
C1970       C  0.83561148  0.23229295  0.71862724     0.30200
C1971       C  0.83518885  0.19772491  0.65289141     0.30200
C1972       C  0.81908687  0.25241578  0.68940460    -0.06000
C1973       C  0.87557992  0.22365378  0.70302967    -0.06800
C1974       C  0.81870348  0.19584834  0.71502634    -0.06700
C1975       C  0.81843462  0.23460855  0.65607371    -0.06000
C1976       C  0.87533548  0.20546969  0.66896125    -0.06800
C1977       C  0.81880393  0.17824424  0.68169232    -0.06700
C1978       C  0.82666637  0.25939683  0.63338696    -0.32100
N1979       N  0.83129960  0.29136189  0.65029927     0.14400
C1980       C  0.82840461  0.28674724  0.68439825    -0.32100
H1981       H  0.83894174  0.30541047  0.70470413     0.16400
C1982       C  0.91238715  0.20124471  0.65919945    -0.31000
N1983       N  0.93483102  0.21627436  0.68508071     0.13200
C1984       C  0.91278769  0.23008731  0.71166737    -0.31000
C1985       C  0.82699245  0.14338126  0.68637395    -0.31300
N1986       N  0.82953203  0.13828315  0.72041271     0.13700
H1987       H  0.83692605  0.12435400  0.66608588     0.16300
C1988       C  0.82614118  0.17035294  0.73763836    -0.31300
H1989       H  0.83605167  0.17576447  0.76391380     0.16300
H1990       H  0.92312463  0.24377203  0.73545519     0.16300
H1991       H  0.83620710  0.25315882  0.60728479     0.16400
H1992       H  0.92236913  0.18904662  0.63468721     0.16300
C1993       C  0.81541035  0.37445510  0.60254473     0.86700
C1994       C  0.79852459  0.34961114  0.57293330    -0.53600
C1995       C  0.77872640  0.32338263  0.58422955     0.09600
C1996       C  0.77689397  0.32333907  0.62353759     0.20500
C1997       C  0.78259355  0.38689184  0.62626284    -0.54300
C1998       C  0.76216643  0.35987006  0.63693916     0.09700
C1999       C  0.83841454  0.34863630  0.62440113    -0.53800
C2000       C  0.81727212  0.32214547  0.63525230     0.10300
H2001       H  0.80297577  0.35180081  0.54534126     0.14800
H2002       H  0.76058088  0.30100160  0.63194243     0.00500
H2003       H  0.77721664  0.41439336  0.63375173     0.15100
H2004       H  0.86798299  0.34876966  0.62926111     0.14900
C2005       C  0.81512224  0.05582190  0.76806516     0.86700
C2006       C  0.79612379  0.08019475  0.79671915    -0.53600
C2007       C  0.77662503  0.10675158  0.78466612     0.09600
C2008       C  0.77523332  0.10672165  0.74539626     0.20500
C2009       C  0.78272939  0.04262882  0.74344492    -0.54300
C2010       C  0.76143677  0.06997307  0.73191708     0.09700
C2011       C  0.83691882  0.08080018  0.74566315    -0.53800
C2012       C  0.81557301  0.10766778  0.73476977     0.10300
H2013       H  0.79961272  0.07795365  0.82454550     0.14800
H2014       H  0.75853339  0.12921959  0.73646645     0.00500
H2015       H  0.77823894  0.01524172  0.73531682     0.15100
H2016       H  0.86646821  0.07859058  0.74039405     0.14900
C2017       C  0.66628655  0.35065901  0.69783324     0.30200
C2018       C  0.72782515  0.36157087  0.65940518     0.30200
C2019       C  0.66458500  0.33629092  0.65984311    -0.06000
C2020       C  0.67537851  0.39082084  0.69346481    -0.06800
C2021       C  0.70336752  0.33625971  0.71063137    -0.06700
C2022       C  0.69621465  0.34177705  0.64023956    -0.06000
C2023       C  0.70736995  0.39548790  0.67334632    -0.06800
C2024       C  0.73422427  0.34178470  0.69170265    -0.06700
C2025       C  0.68399802  0.34608437  0.60699077    -0.32100
N2026       N  0.64709334  0.34166146  0.60457701     0.14400
C2027       C  0.63506589  0.33867154  0.63715997    -0.32100
H2028       H  0.60668374  0.34395127  0.64476832     0.16400
C2029       C  0.70771898  0.42985064  0.66510872    -0.31000
N2030       N  0.67837402  0.44751676  0.67990424     0.13200
C2031       C  0.65831908  0.42443539  0.69739814    -0.31000
C2032       C  0.76463394  0.33253838  0.71129219    -0.31300
N2033       N  0.75304450  0.31818789  0.74033440     0.13700
H2034       H  0.79251752  0.34027768  0.70671010     0.16300
C2035       C  0.71576723  0.32496135  0.74138547    -0.31300
H2036       H  0.69934388  0.33082142  0.76426676     0.16300
H2037       H  0.63322908  0.43176401  0.71140288     0.16300
H2038       H  0.70030521  0.35633622  0.58689622     0.16400
H2039       H  0.72779687  0.44209576  0.64968647     0.16300
C2040       C  0.59160387  0.30259619  0.52721603     0.86700
C2041       C  0.57250031  0.27814773  0.55167381    -0.53600
C2042       C  0.59507291  0.26804982  0.57734486     0.09600
C2043       C  0.63488950  0.28008077  0.57540845     0.20500
C2044       C  0.60948700  0.33205130  0.55151565    -0.54300
C2045       C  0.63177770  0.31994119  0.57632512     0.09700
C2046       C  0.62534021  0.27932262  0.51259884    -0.53800
C2047       C  0.64811776  0.26727088  0.53864678     0.10300
H2048       H  0.54364550  0.27029786  0.55008369     0.14800
H2049       H  0.65254326  0.27107418  0.59698381     0.00500
H2050       H  0.60355369  0.36004460  0.55026974     0.15100
H2051       H  0.62957353  0.27229383  0.48518788     0.14900
C2052       C  0.82815247  0.29378800  0.80634200     0.86700
C2053       C  0.84739037  0.26955948  0.77735610    -0.53600
C2054       C  0.82371085  0.25179753  0.75452778     0.09600
C2055       C  0.78149429  0.25894458  0.76505321     0.20500
C2056       C  0.80066932  0.31736416  0.78669522    -0.54300
C2057       C  0.77651663  0.29984778  0.76471922     0.09700
C2058       C  0.80243398  0.26971433  0.82559043    -0.53800
C2059       C  0.77733348  0.25137467  0.80499597     0.10300
H2060       H  0.87721484  0.26916252  0.77368411     0.14800
H2061       H  0.76149901  0.24436561  0.74725336     0.00500
H2062       H  0.80120943  0.34602273  0.78900245     0.15100
H2063       H  0.80136198  0.26880019  0.85326563     0.14900
C2064       C  0.74516765  0.20125595  0.54900204     0.30200
C2065       C  0.68297468  0.24298185  0.53691396     0.30200
C2066       C  0.74655777  0.23971001  0.56350348    -0.06000
C2067       C  0.73553038  0.20651427  0.50928050    -0.06800
C2068       C  0.70781446  0.18988858  0.56217086    -0.06700
C2069       C  0.71503318  0.26077319  0.55725866    -0.06000
C2070       C  0.70341214  0.22804833  0.50406069    -0.06800
C2071       C  0.67697192  0.21026784  0.55618316    -0.06700
C2072       C  0.72728100  0.29430682  0.55501679    -0.32100
N2073       N  0.76392061  0.29546230  0.56183351     0.14400
C2074       C  0.77606993  0.26202358  0.56412815    -0.32100
H2075       H  0.80475590  0.25393253  0.56132307     0.16400
C2076       C  0.70172666  0.23506719  0.96986419    -0.31000
N2077       N  0.73065765  0.21869444  0.95291107     0.13200
C2078       C  0.75137108  0.20085902  0.97616750    -0.31000
C2079       C  0.64676633  0.19248816  0.56672964    -0.31300
N2080       N  0.65849460  0.16338901  0.58215730     0.13700
H2081       H  0.61870309  0.19817442  0.55917280     0.16300
C2082       C  0.69546052  0.16019875  0.57513732    -0.31300
H2083       H  0.71159273  0.13659611  0.57080201     0.16300
H2084       H  0.77584276  0.18503527  0.96939788     0.16300
H2085       H  0.71118273  0.31579658  0.54553200     0.16400
H2086       H  0.68073857  0.25061853  0.95756023     0.16300
C2087       C  0.74494699  0.22989311  0.82017418     0.30200
C2088       C  0.68260756  0.19062944  0.83124561     0.30200
C2089       C  0.74578061  0.19163359  0.80531059    -0.06000
C2090       C  0.73575254  0.22469677  0.85980408    -0.06800
C2091       C  0.70770187  0.24291818  0.80674092    -0.06700
C2092       C  0.71415774  0.17181577  0.81111921    -0.06000
C2093       C  0.70350908  0.20437205  0.86442947    -0.06800
C2094       C  0.67668392  0.22378076  0.81220223    -0.06700
C2095       C  0.72585537  0.13777321  0.81310836    -0.32100
N2096       N  0.76229507  0.13524949  0.80662957     0.14400
C2097       C  0.77495931  0.16814045  0.80475952    -0.32100
H2098       H  0.80373952  0.17497324  0.80830513     0.16400
C2099       C  0.70164811  0.19756522  0.89860575    -0.31000
N2100       N  0.73064485  0.21295454  0.91618154     0.13200
C2101       C  0.75152416  0.22995263  0.89334041    -0.31000
C2102       C  0.64677919  0.24248745  0.80047450    -0.31300
N2103       N  0.65901800  0.27080058  0.78482757     0.13700
H2104       H  0.61862506  0.23795563  0.80724248     0.16300
C2105       C  0.69590575  0.27261279  0.79269973    -0.31300
H2106       H  0.71256024  0.29571271  0.79655929     0.16300
H2107       H  0.77601994  0.24495341  0.90072512     0.16300
H2108       H  0.70962958  0.11685952  0.82226309     0.16400
H2109       H  0.68045581  0.18292944  0.91049604     0.16300
O2110       O  0.98938183  0.00694904  0.48233162    -0.80000
O2111       O  0.91376657  0.01328894  0.89010192    -0.80000
O2112       O  0.49636593  0.02284568  0.92302421    -0.80000
O2113       O  0.90600413  0.01003732  0.96964714    -0.79900
O2114       O  0.98557562  0.00822891  0.86890053    -0.80100
O2115       O  0.93091770  0.99290014  0.51898581    -0.80000
O2116       O  0.86784795  0.98362108  0.90614271    -0.80000
O2117       O  0.54446799  0.48682334  0.96264868    -0.80000
C2118       C  0.52518881  0.00557636  0.98522158     1.09700
C2119       C  0.88004333  0.00647429  0.88757900     1.09600
C2120       C  0.49778488  0.03018369  0.89209572     1.09800
C2121       C  0.91257174  0.01590290  0.00277353     1.09600
O2122       O  0.91022210  0.43208094  0.48327076    -0.80000
O2123       O  0.97851039  0.43539759  0.85811668    -0.80000
O2124       O  0.51069973  0.42392939  0.94494552    -0.80000
O2125       O  0.89488660  0.41611359  0.91487635    -0.79900
O2126       O  0.90472360  0.43887134  0.86487049    -0.80000
O2127       O  0.98273186  0.43310432  0.49444696    -0.80000
O2128       O  0.85745358  0.45602181  0.96872407    -0.79900
O2129       O  0.52744176  0.45466110  0.89017458    -0.80000
Co2130     Co  0.94844184  0.47010397  0.97591271     1.51500
Co2131     Co  0.94543491  0.47378787  0.87327945     1.51700
Co2132     Co  0.50180618  0.47245916  0.93495490     1.51600
Co2133     Co  0.90114619  0.46224630  0.94146993     1.51500
O2134       O  0.95257744  0.46022235  0.92219259    -1.41900
C2135       C  0.87587558  0.43880014  0.99004405     1.09700
C2136       C  0.51263686  0.43374942  0.86607257     1.09800
C2137       C  0.50390660  0.41395298  0.97426089     1.09700
C2138       C  0.89561116  0.41313874  0.88179232     1.09700
C2139       C  0.87305430  0.35192988  0.88120056    -0.12100
C2140       C  0.88419230  0.37984929  0.86238541     0.04900
C2141       C  0.88574649  0.37444913  0.82560347    -0.07400
C2142       C  0.87280915  0.34306853  0.80893811    -0.08100
C2143       C  0.85543613  0.31769582  0.82754373    -0.02700
C2144       C  0.85934128  0.32077866  0.86439573     0.04100
N2145       N  0.85246714  0.29240790  0.88540022     0.66700
H2146       H  0.87481147  0.35418333  0.90939911     0.15600
H2147       H  0.87237790  0.34039961  0.78068266     0.15300
N2148       N  0.89896044  0.40068874  0.80437591     0.74400
O2149       O  0.87703767  0.26853843  0.88722199    -0.39100
O2150       O  0.82875971  0.29681627  0.90930654    -0.40600
O2151       O  0.92923281  0.39528529  0.78847039    -0.39700
O2152       O  0.87625120  0.42332671  0.79403109    -0.39800
C2153       C  0.55485225  0.36906207  0.46608367    -0.12100
C2154       C  0.52239148  0.38092786  0.48379995     0.04900
C2155       C  0.50899410  0.36103487  0.50971985    -0.07400
C2156       C  0.52920220  0.33172576  0.51928825    -0.08100
C2157       C  0.56381356  0.32117670  0.50403906    -0.02700
C2158       C  0.57581462  0.34010224  0.47620799     0.04100
N2159       N  0.61080206  0.33262501  0.45993841     0.66700
H2160       H  0.56555212  0.38370995  0.44549410     0.15600
H2161       H  0.51904388  0.32023639  0.54194356     0.15300
N2162       N  0.97655426  0.37175769  0.52886571     0.74400
O2163       O  0.61148019  0.31478297  0.43085565    -0.39100
O2164       O  0.63835191  0.35140469  0.46927639    -0.39000
O2165       O  0.94682894  0.35501932  0.02299379    -0.39700
O2166       O  0.98032730  0.39093744  0.55694580    -0.39800
C2167       C  0.86868459  0.04974029  0.80643933    -0.12100
C2168       C  0.83962837  0.03127415  0.78811897     0.04900
C2169       C  0.82424980  0.00236610  0.80399219    -0.07400
C2170       C  0.83654013  0.99461699  0.83733663    -0.08100
C2171       C  0.86010433  0.01780944  0.85695645    -0.02700
C2172       C  0.87308625  0.04770523  0.84218499     0.04100
N2173       N  0.88670814  0.07766303  0.86393643     0.66700
H2174       H  0.88063229  0.07241679  0.79598196     0.15600
H2175       H  0.82689981  0.47103537  0.84818870     0.15300
N2176       N  0.79496505  0.98181089  0.78779933     0.74400
O2177       O  0.90111190  0.10329017  0.85047592    -0.39100
O2178       O  0.87678586  0.08218031  0.89533285    -0.39000
O2179       O  0.80280313  0.45248686  0.77158687    -0.39700
O2180       O  0.76195963  0.98801543  0.79751057    -0.39800
C2181       C  0.80946894  0.42227913  0.56276919    -0.12100
C2182       C  0.83324839  0.40438568  0.58510235     0.04900
C2183       C  0.87182974  0.40633174  0.58030603    -0.07400
C2184       C  0.88491914  0.41783392  0.54910863    -0.08100
C2185       C  0.86022998  0.42865858  0.52315082    -0.02700
C2186       C  0.82221820  0.43273469  0.53119680     0.04100
N2187       N  0.79546285  0.44366051  0.50637858     0.66700
H2188       H  0.77966744  0.42239021  0.56671096     0.15600
H2189       H  0.91460116  0.41864983  0.54532812     0.15300
N2190       N  0.89775996  0.39833178  0.60712216     0.74400
O2191       O  0.77897047  0.42039311  0.98687875    -0.39100
O2192       O  0.78143334  0.47429986  0.01046176    -0.39000
O2193       O  0.92446436  0.37703436  0.60048897    -0.39700
O2194       O  0.89319043  0.41155118  0.63794046    -0.39800
C2195       C  0.53228808  0.10180869  0.83909248    -0.12100
C2196       C  0.56179603  0.11651731  0.85977969     0.04900
C2197       C  0.56589435  0.10594265  0.89403363    -0.07400
C2198       C  0.54251145  0.07972127  0.90528985    -0.08100
C2199       C  0.51613789  0.06264428  0.88254291    -0.02700
C2200       C  0.51046812  0.07501235  0.84939874     0.04100
N2201       N  0.98546007  0.05860720  0.82399308     0.66700
H2202       H  0.52878037  0.10773487  0.81221125     0.15600
H2203       H  0.54703762  0.07083071  0.93105649     0.15300
N2204       N  0.59472187  0.11937631  0.91696734     0.74400
O2205       O  0.95914288  0.07688633  0.81257490    -0.39100
O2206       O  0.99692995  0.03205798  0.80510990    -0.39000
O2207       O  0.58650617  0.14209750  0.94149935    -0.39700
O2208       O  0.62481047  0.10204248  0.91874375    -0.39800
C2209       C  0.88522900  0.07558899  0.49881563    -0.12100
C2210       C  0.89866263  0.04972396  0.52009438     0.04900
C2211       C  0.89555398  0.05616443  0.55639248    -0.07400
C2212       C  0.87608323  0.08611852  0.57010862    -0.08100
C2213       C  0.85784185  0.10958204  0.54852883    -0.02700
C2214       C  0.86516613  0.10526862  0.51237190     0.04100
N2215       N  0.85368364  0.13037724  0.48868868     0.66700
H2216       H  0.88934609  0.07240175  0.97092413     0.15600
H2217       H  0.87253485  0.08948769  0.59810074     0.15300
N2218       N  0.90937061  0.53155532  0.57971958     0.74400
O2219       O  0.87541295  0.15501447  0.48326534    -0.39100
O2220       O  0.82872482  0.12202723  0.46630180    -0.39000
O2221       O  0.88715635  0.51031266  0.59163349    -0.39700
O2222       O  0.94018022  0.53724960  0.59503097    -0.39800
C2223       C  0.56762946  0.41835032  0.83059157    -0.12100
C2224       C  0.53450725  0.40803199  0.84437588     0.04900
C2225       C  0.51902219  0.37528851  0.83234557    -0.07400
C2226       C  0.53439393  0.35562051  0.80384520    -0.08100
C2227       C  0.56681033  0.36641819  0.78840452    -0.02700
C2228       C  0.58494843  0.39721519  0.80411378     0.04100
N2229       N  0.62181158  0.40666779  0.79537684     0.66700
H2230       H  0.58025526  0.44293531  0.84046352     0.15600
H2231       H  0.52246900  0.33028219  0.79581630     0.15300
N2232       N  0.48976647  0.36013085  0.85074359     0.74400
O2233       O  0.62622066  0.43432187  0.77997053    -0.39100
O2234       O  0.64889103  0.39471387  0.81221134    -0.39000
O2235       O  0.96248860  0.34670249  0.83388899    -0.39700
O2236       O  0.49644234  0.35102324  0.88100673    -0.39800
C2237       C  0.52349936  0.06103392  0.52350463    -0.12100
C2238       C  0.54188916  0.02898466  0.51341159     0.04900
C2239       C  0.57211223  0.01831014  0.53347287    -0.07400
C2240       C  0.58346189  0.03964310  0.56277636    -0.08100
C2241       C  0.56457180  0.07155835  0.57415398    -0.02700
C2242       C  0.53478256  0.08253582  0.55291423     0.04100
N2243       N  0.51689924  0.11620529  0.55923970     0.66700
H2244       H  0.50022177  0.06982201  0.00807130     0.15600
H2245       H  0.60869028  0.03134829  0.57547739     0.15300
N2246       N  0.09100253  0.98536649  0.52530933     0.74400
O2247       O  0.52851295  0.14187248  0.04385707    -0.39100
O2248       O  0.48443893  0.11772920  0.57138035    -0.39000
O2249       O  0.62100208  0.48492294  0.50866435    -0.39700
O2250       O  0.08337757  0.95935914  0.54215279    -0.39800
C2251       C  0.58477778  0.59700299  0.10077830     0.86700
C2252       C  0.61187617  0.61743630  0.07979607    -0.53600
C2253       C  0.63479091  0.63913320  0.09883551     0.09600
C2254       C  0.62863156  0.63836240  0.13891996     0.20500
C2255       C  0.60882961  0.57771867  0.12720139    -0.54300
C2256       C  0.63316609  0.59809400  0.14640821     0.09700
C2257       C  0.56332692  0.62615871  0.12412270    -0.53800
C2258       C  0.58603273  0.64874796  0.14425926     0.10300
H2259       H  0.61216449  0.61563599  0.05148688     0.14800
H2260       H  0.64785728  0.65609118  0.15454135     0.00500
H2261       H  0.60716541  0.54978421  0.13007118     0.15100
H2262       H  0.53341137  0.62954285  0.12377204     0.14900
C2263       C  0.57383887  0.68468719  0.16502282     0.30200
C2264       C  0.57377897  0.75141534  0.20046500     0.30200
C2265       C  0.59013879  0.71423418  0.14655202    -0.06000
C2266       C  0.53400578  0.70108983  0.17349106    -0.06800
C2267       C  0.59158186  0.68782792  0.20112111    -0.06700
C2268       C  0.59060045  0.74790739  0.16439756    -0.06000
C2269       C  0.53379270  0.73538225  0.19213569    -0.06800
C2270       C  0.59101144  0.72157382  0.21896501    -0.06700
C2271       C  0.58470259  0.77115839  0.13945528    -0.32100
N2272       N  0.58198372  0.75372306  0.10778034     0.14400
C2273       C  0.58300790  0.71922101  0.11227186    -0.32100
H2274       H  0.57332566  0.69905958  0.09300808     0.16400
C2275       C  0.99648159  0.74395905  0.19855374    -0.31000
N2276       N  0.97453753  0.71725478  0.18425286     0.13200
C2277       C  0.99708677  0.69130987  0.16895523    -0.31000
C2278       C  0.58397468  0.71678865  0.25309306    -0.31300
N2279       N  0.58280580  0.68236241  0.25758661     0.13700
H2280       H  0.57380014  0.73717317  0.27194893     0.16300
C2281       C  0.58580283  0.66480343  0.22602734    -0.31300
H2282       H  0.57617524  0.63837263  0.22056329     0.16300
H2283       H  0.98732904  0.66674008  0.15618188     0.16300
H2284       H  0.57560181  0.79805210  0.14467497     0.16400
H2285       H  0.98608692  0.76790247  0.21243957     0.16300
C2286       C  0.58685535  0.83992116  0.26336249     0.86700
C2287       C  0.61372950  0.81903211  0.28540751    -0.53600
C2288       C  0.63590364  0.79577290  0.26719314     0.09600
C2289       C  0.62955401  0.79597568  0.22693818     0.20500
C2290       C  0.61019622  0.85761260  0.23702207    -0.54300
C2291       C  0.63433337  0.83602340  0.21900473     0.09700
C2292       C  0.56467037  0.81098098  0.24048526    -0.53800
C2293       C  0.58677337  0.78705823  0.22113382     0.10300
H2294       H  0.61419965  0.82152998  0.31373013     0.14800
H2295       H  0.64856413  0.77731990  0.21193369     0.00500
H2296       H  0.60824903  0.88541002  0.23357384     0.15100
H2297       H  0.53468237  0.80876613  0.24058400     0.14900
C2298       C  0.72689896  0.56918558  0.20867178     0.30200
C2299       C  0.66508970  0.58228019  0.16874375     0.30200
C2300       C  0.73314188  0.58925112  0.17686187    -0.06000
C2301       C  0.70656056  0.53610224  0.19378470    -0.06800
C2302       C  0.69516191  0.58961988  0.22722678    -0.06700
C2303       C  0.70232470  0.59596094  0.15726052    -0.06000
C2304       C  0.67456511  0.54179593  0.17286215    -0.06800
C2305       C  0.66341487  0.59620002  0.20707908    -0.06700
C2306       C  0.71494503  0.60790388  0.12727506    -0.32100
N2307       N  0.75224949  0.61369820  0.12958681     0.14400
C2308       C  0.76363163  0.59830575  0.15852620    -0.32100
H2309       H  0.79154113  0.58986450  0.16389976     0.16400
C2310       C  0.65804576  0.50847418  0.16776584    -0.31000
N2311       N  0.67828919  0.98474820  0.18557157     0.13200
C2312       C  0.70733977  0.50164600  0.20149405    -0.31000
C2313       C  0.63418526  0.59525458  0.22965577    -0.31300
N2314       N  0.64669844  0.59243132  0.26255242     0.13700
H2315       H  0.60564355  0.59094234  0.22188136     0.16300
C2316       C  0.68347177  0.58629891  0.26047146    -0.31300
H2317       H  0.70009216  0.57599700  0.28096236     0.16300
H2318       H  0.72766469  0.98894721  0.21728934     0.16300
H2319       H  0.69874410  0.60285717  0.10411672     0.16400
H2320       H  0.63337089  0.00182597  0.15250524     0.16300
C2321       C  0.82887706  0.63476386  0.06652110     0.86700
C2322       C  0.84727677  0.65940167  0.09551819    -0.53600
C2323       C  0.82328888  0.67824696  0.11694157     0.09600
C2324       C  0.78123307  0.67174222  0.10513277     0.20500
C2325       C  0.80106045  0.61244333  0.08547344    -0.54300
C2326       C  0.77623347  0.63101004  0.10591042     0.09700
C2327       C  0.80329426  0.65915258  0.04551382    -0.53800
C2328       C  0.77758941  0.67861478  0.06494195     0.10300
H2329       H  0.87700566  0.65918650  0.10042643     0.14800
H2330       H  0.76097253  0.68714787  0.12198980     0.00500
H2331       H  0.80190196  0.58378095  0.08389705     0.15100
H2332       H  0.80319704  0.65999813  0.01774360     0.14900
C2333       C  0.59152734  0.63383435  0.33893974     0.86700
C2334       C  0.57275305  0.65865233  0.31365769    -0.53600
C2335       C  0.59548752  0.66779601  0.28850437     0.09600
C2336       C  0.63513254  0.65459102  0.29167798     0.20500
C2337       C  0.60992382  0.60362674  0.31543503    -0.54300
C2338       C  0.63200231  0.61482235  0.29079159     0.09700
C2339       C  0.62510625  0.65610168  0.35445020    -0.53800
C2340       C  0.64792910  0.66734592  0.32883848     0.10300
H2341       H  0.54345825  0.66606593  0.31390640     0.14800
H2342       H  0.65289093  0.66295923  0.27051870     0.00500
H2343       H  0.60401658  0.57583165  0.31676164     0.15100
H2344       H  0.62923869  0.66332764  0.38188501     0.14900
C2345       C  0.83561468  0.73229479  0.21863202     0.30200
C2346       C  0.83519291  0.69772630  0.15289674     0.30200
C2347       C  0.81909340  0.75241887  0.18940894    -0.06000
C2348       C  0.87558326  0.72365243  0.20303647    -0.06800
C2349       C  0.81870222  0.69585246  0.21503064    -0.06700
C2350       C  0.81844231  0.73461190  0.15607792    -0.06000
C2351       C  0.87533929  0.70546813  0.16896823    -0.06800
C2352       C  0.81880481  0.67824730  0.18169740    -0.06700
C2353       C  0.82667816  0.75940041  0.13339228    -0.32100
N2354       N  0.83131070  0.79136548  0.15030531     0.14400
C2355       C  0.82841326  0.78674999  0.18440385    -0.32100
H2356       H  0.83895014  0.80541236  0.20471065     0.16400
C2357       C  0.91239106  0.70124345  0.15920684    -0.31000
N2358       N  0.93483451  0.71627359  0.18508827     0.13200
C2359       C  0.91279082  0.73008646  0.21167457    -0.31000
C2360       C  0.82698998  0.64338404  0.18638145    -0.31300
N2361       N  0.82952315  0.63828748  0.22042095     0.13700
H2362       H  0.83692363  0.62435477  0.16609519     0.16300
C2363       C  0.82613183  0.67035786  0.23764504    -0.31300
H2364       H  0.83603571  0.67577002  0.26392232     0.16300
H2365       H  0.92312737  0.74377246  0.23546188     0.16300
H2366       H  0.83622222  0.75316243  0.10729111     0.16400
H2367       H  0.92237316  0.68904621  0.13469426     0.16300
C2368       C  0.81541456  0.87445637  0.10254851     0.86700
C2369       C  0.79852709  0.84961009  0.07293990    -0.53600
C2370       C  0.77873070  0.82338213  0.08423943     0.09600
C2371       C  0.77690137  0.82334126  0.12354785     0.20500
C2372       C  0.78259906  0.88689418  0.12626807    -0.54300
C2373       C  0.76217355  0.85987288  0.13694793     0.09700
C2374       C  0.83842127  0.84863933  0.12440488    -0.53800
C2375       C  0.81728062  0.82214888  0.13525946     0.10300
H2376       H  0.80297592  0.85179772  0.04534718     0.14800
H2377       H  0.76058962  0.80100411  0.13195524     0.00500
H2378       H  0.77722075  0.91439610  0.13375419     0.15100
H2379       H  0.86799033  0.84877283  0.12926142     0.14900
C2380       C  0.81512254  0.55581962  0.26806701     0.86700
C2381       C  0.79612714  0.58018859  0.29672589    -0.53600
C2382       C  0.77662549  0.60674661  0.28467844     0.09600
C2383       C  0.77522918  0.60672211  0.24540902     0.20500
C2384       C  0.78272835  0.54262915  0.24344771    -0.54300
C2385       C  0.76143343  0.56997454  0.23192551     0.09700
C2386       C  0.83691572  0.58080200  0.24566631    -0.53800
C2387       C  0.81556761  0.60767108  0.23477895     0.10300
H2388       H  0.79962031  0.57794421  0.32455132     0.14800
H2389       H  0.75852715  0.62922087  0.23648375     0.00500
H2390       H  0.77824044  0.51524265  0.23531486     0.15100
H2391       H  0.86646395  0.57859289  0.24039181     0.14900
C2392       C  0.66629228  0.85066306  0.19784167     0.30200
C2393       C  0.72783171  0.86157457  0.15941389     0.30200
C2394       C  0.66459280  0.83629201  0.15985255    -0.06000
C2395       C  0.67538243  0.89082471  0.19347044    -0.06800
C2396       C  0.70337365  0.83626705  0.21064206    -0.06700
C2397       C  0.69622260  0.84177825  0.14024913    -0.06000
C2398       C  0.70737418  0.89549164  0.17335212    -0.06800
C2399       C  0.73423054  0.84179127  0.19171318    -0.06700
C2400       C  0.68400622  0.84608404  0.10700009    -0.32100
N2401       N  0.64710185  0.84166004  0.10458638     0.14400
C2402       C  0.63507395  0.83867001  0.13716900    -0.32100
H2403       H  0.60669172  0.84394945  0.14477697     0.16400
C2404       C  0.70772199  0.92985381  0.16511278    -0.31000
N2405       N  0.67837627  0.94751989  0.17990731     0.13200
C2406       C  0.65832219  0.92443891  0.19740258    -0.31000
C2407       C  0.76463982  0.83254106  0.21130090    -0.31300
N2408       N  0.75304965  0.81819063  0.24034287     0.13700
H2409       H  0.79252405  0.84027718  0.20671768     0.16300
C2410       C  0.71577287  0.82496654  0.24139526    -0.31300
H2411       H  0.69934937  0.83082389  0.26427728     0.16300
H2412       H  0.63323252  0.93176750  0.21140798     0.16300
H2413       H  0.70031296  0.85633663  0.08690563     0.16400
H2414       H  0.72780025  0.94209867  0.14969066     0.16300
C2415       C  0.59161174  0.80260283  0.02722339     0.86700
C2416       C  0.57250584  0.77815380  0.05167896    -0.53600
C2417       C  0.59507683  0.76805300  0.07734970     0.09600
C2418       C  0.63489458  0.78008117  0.07541448     0.20500
C2419       C  0.60949654  0.83205520  0.05152475    -0.54300
C2420       C  0.63178569  0.81994200  0.07633345     0.09700
C2421       C  0.62534662  0.77932804  0.01260490    -0.53800
C2422       C  0.64812265  0.76727262  0.03865207     0.10300
H2423       H  0.54365038  0.77030600  0.05008794     0.14800
H2424       H  0.65254720  0.77107212  0.09698946     0.00500
H2425       H  0.60356536  0.86004911  0.05028064     0.15100
H2426       H  0.62958051  0.77230188  0.98519354     0.14900
C2427       C  0.82815755  0.79378683  0.30634757     0.86700
C2428       C  0.84739491  0.76955988  0.27736057    -0.53600
C2429       C  0.82371497  0.75179918  0.25453206     0.09600
C2430       C  0.78149885  0.75894541  0.26505777     0.20500
C2431       C  0.80067380  0.81736399  0.28670302    -0.54300
C2432       C  0.77652113  0.79984878  0.26472650     0.09700
C2433       C  0.80243929  0.76971168  0.32559510    -0.53800
C2434       C  0.77733855  0.75137233  0.30499953     0.10300
H2435       H  0.87721933  0.76916283  0.27368836     0.14800
H2436       H  0.76150359  0.74436754  0.24725703     0.00500
H2437       H  0.80121366  0.84602259  0.28901176     0.15100
H2438       H  0.80136878  0.76879649  0.35327036     0.14900
C2439       C  0.74517114  0.70125486  0.04900512     0.30200
C2440       C  0.68297886  0.74298236  0.03691765     0.30200
C2441       C  0.74656036  0.73970803  0.06350959    -0.06000
C2442       C  0.73553578  0.70651629  0.00928346    -0.06800
C2443       C  0.70781685  0.68988607  0.06217094    -0.06700
C2444       C  0.71503655  0.76077188  0.05726463    -0.06000
C2445       C  0.70341785  0.72805098  0.00406393    -0.06800
C2446       C  0.67697490  0.71026658  0.05618413    -0.06700
C2447       C  0.72728465  0.79430592  0.05502645    -0.32100
N2448       N  0.76392366  0.79546057  0.06184588     0.14400
C2449       C  0.77607266  0.76202166  0.06413959    -0.32100
H2450       H  0.80475872  0.75393064  0.06133671     0.16400
C2451       C  0.70172389  0.73506826  0.46986228    -0.31000
N2452       N  0.73065614  0.71869721  0.45291001     0.13200
C2453       C  0.75136852  0.70086053  0.47616582    -0.31000
C2454       C  0.64676887  0.69248880  0.06673264    -0.31300
N2455       N  0.65849611  0.66338878  0.08215952     0.13700
H2456       H  0.61870555  0.69817735  0.05917811     0.16300
C2457       C  0.69546176  0.66019657  0.07513783    -0.31300
H2458       H  0.71159333  0.63659296  0.07080445     0.16300
H2459       H  0.77584167  0.68503895  0.46939634     0.16300
H2460       H  0.71118738  0.81579647  0.04554201     0.16400
H2461       H  0.68073725  0.75062135  0.45755846     0.16300
C2462       C  0.74495098  0.72988971  0.32017526     0.30200
C2463       C  0.68260975  0.69062733  0.33124606     0.30200
C2464       C  0.74578699  0.69162744  0.30531808    -0.06000
C2465       C  0.73575125  0.72469985  0.35980457    -0.06800
C2466       C  0.70770733  0.74291121  0.30673478    -0.06700
C2467       C  0.71416226  0.67181094  0.31112524    -0.06000
C2468       C  0.70350732  0.70437576  0.36442973    -0.06800
C2469       C  0.67668850  0.72377462  0.31219629    -0.06700
C2470       C  0.72585787  0.63776859  0.31311954    -0.32100
N2471       N  0.76229870  0.63524261  0.30664654     0.14400
C2472       C  0.77496485  0.66813317  0.30477643    -0.32100
H2473       H  0.80374510  0.67496493  0.30832668     0.16400
C2474       C  0.70164669  0.69756845  0.39860552    -0.31000
N2475       N  0.73064359  0.71295746  0.41618093     0.13200
C2476       C  0.75152348  0.72995504  0.39334031    -0.31000
C2477       C  0.64678378  0.74248479  0.30047390    -0.31300
N2478       N  0.65902296  0.77079866  0.28482871     0.13700
H2479       H  0.61863022  0.73795599  0.30724627     0.16300
C2480       C  0.69591115  0.77260843  0.29269845    -0.31300
H2481       H  0.71256489  0.79570891  0.29656359     0.16300
H2482       H  0.77602070  0.74495369  0.40072496     0.16300
H2483       H  0.70962890  0.61685612  0.32227249     0.16400
H2484       H  0.68045550  0.68293132  0.41049572     0.16300
O2485       O  0.98937805  0.50695134  0.98233019    -0.80000
O2486       O  0.91376633  0.51329040  0.39010423    -0.80000
O2487       O  0.49636487  0.52284729  0.42302658    -0.80000
O2488       O  0.90600825  0.51004019  0.46964607    -0.79900
O2489       O  0.98557465  0.50823126  0.36890286    -0.80100
O2490       O  0.93091525  0.49289544  0.01898522    -0.80000
O2491       O  0.86784709  0.48362366  0.40614379    -0.80000
O2492       O  0.54447022  0.98682173  0.46264538    -0.80000
C2493       C  0.52519279  0.50557460  0.48521908     1.09700
C2494       C  0.88004332  0.50647585  0.38757934     1.09600
C2495       C  0.49778357  0.53018611  0.39209824     1.09800
C2496       C  0.91257732  0.51590842  0.50277187     1.09600
O2497       O  0.91022382  0.93207715  0.98326819    -0.80000
O2498       O  0.97851024  0.93539925  0.35811777    -0.80000
O2499       O  0.51069906  0.92392925  0.44494476    -0.80000
O2500       O  0.89488405  0.91611605  0.41487983    -0.79900
O2501       O  0.90472332  0.93887212  0.36487333    -0.80000
O2502       O  0.98273400  0.93310781  0.99444793    -0.80000
O2503       O  0.85745339  0.95602808  0.46872719    -0.79900
O2504       O  0.52744069  0.95466449  0.39017557    -0.80000
Co2505     Co  0.94844295  0.97010463  0.47591393     1.51500
Co2506     Co  0.94543448  0.97378932  0.37328111     1.51700
Co2507     Co  0.50180564  0.97245979  0.43495583     1.51600
Co2508     Co  0.90114598  0.96224920  0.44147152     1.51500
O2509       O  0.95257685  0.96022290  0.42219370    -1.41900
C2510       C  0.87587459  0.93880563  0.49004705     1.09700
C2511       C  0.51263663  0.93375193  0.36607430     1.09800
C2512       C  0.50390366  0.91394982  0.47425855     1.09700
C2513       C  0.89561051  0.91313998  0.38179589     1.09700
C2514       C  0.87305897  0.85192881  0.38120498    -0.12100
C2515       C  0.88419402  0.87984942  0.36238966     0.04900
C2516       C  0.88574853  0.87444934  0.32560779    -0.07400
C2517       C  0.87281337  0.84306796  0.30894253    -0.08100
C2518       C  0.85544201  0.81769435  0.32754834    -0.02700
C2519       C  0.85934835  0.82077649  0.36439992     0.04100
N2520       N  0.85247977  0.79240315  0.38540278     0.66700
H2521       H  0.87481720  0.85418203  0.40940348     0.15600
H2522       H  0.87238166  0.84039925  0.28068708     0.15300
N2523       N  0.89896011  0.90069001  0.30438024     0.74400
O2524       O  0.87705148  0.76853371  0.38721770    -0.39100
O2525       O  0.82877622  0.79680765  0.40931279    -0.40600
O2526       O  0.92923660  0.89529215  0.28848040    -0.39700
O2527       O  0.87624785  0.92332284  0.29403054    -0.39800
C2528       C  0.55486043  0.86907066  0.96609153    -0.12100
C2529       C  0.52239814  0.88093481  0.98380618     0.04900
C2530       C  0.50900284  0.86104412  0.00972865    -0.07400
C2531       C  0.52921219  0.83173664  0.01929851    -0.08100
C2532       C  0.56382294  0.82118696  0.00404842    -0.02700
C2533       C  0.57582467  0.84011300  0.97621801     0.04100
N2534       N  0.61081493  0.83263965  0.95995241     0.66700
H2535       H  0.56556001  0.88371859  0.94550186     0.15600
H2536       H  0.51905505  0.82024890  0.04195521     0.15300
N2537       N  0.97656345  0.87176734  0.02887483     0.74400
O2538       O  0.61149738  0.81481010  0.93086299    -0.39100
O2539       O  0.63836526  0.85141306  0.96930391    -0.39000
O2540       O  0.94681952  0.85501182  0.52298220    -0.39700
O2541       O  0.98033659  0.89095041  0.05695288    -0.39800
C2542       C  0.86869215  0.54972805  0.30642980    -0.12100
C2543       C  0.83962937  0.53126709  0.28811474     0.04900
C2544       C  0.82424691  0.50236359  0.30399292    -0.07400
C2545       C  0.83653804  0.49461681  0.33733794    -0.08100
C2546       C  0.86010693  0.51780810  0.35695369    -0.02700
C2547       C  0.87309405  0.54769875  0.34217631     0.04100
N2548       N  0.88672053  0.57765839  0.36392224     0.66700
H2549       H  0.88064583  0.57239907  0.29596779     0.15600
H2550       H  0.82689356  0.97103912  0.34819414     0.15300
N2551       N  0.79495536  0.48181301  0.28780584     0.74400
O2552       O  0.90112573  0.60328147  0.35045613    -0.39100
O2553       O  0.87679986  0.58218252  0.39531874    -0.39000
O2554       O  0.80278317  0.95247761  0.27161080    -0.39700
O2555       O  0.76195077  0.48803598  0.29751046    -0.39800
C2556       C  0.80947050  0.92227499  0.06276674    -0.12100
C2557       C  0.83325093  0.90438557  0.08510230     0.04900
C2558       C  0.87183225  0.90633379  0.08030636    -0.07400
C2559       C  0.88492120  0.91783388  0.04910783    -0.08100
C2560       C  0.86023155  0.92865339  0.02314805    -0.02700
C2561       C  0.82221919  0.93272658  0.03119253     0.04100
N2562       N  0.79546297  0.94364322  0.00637064     0.66700
H2563       H  0.77966896  0.92238425  0.06670809     0.15600
H2564       H  0.91460320  0.91865223  0.04532797     0.15300
N2565       N  0.89776282  0.89833796  0.10712368     0.74400
O2566       O  0.77896189  0.92041523  0.48688682    -0.39100
O2567       O  0.78144199  0.97431958  0.51047365    -0.39000
O2568       O  0.92446993  0.87704325  0.10049214    -0.39700
O2569       O  0.89319131  0.91155855  0.13794129    -0.39800
C2570       C  0.53228461  0.60181446  0.33909634    -0.12100
C2571       C  0.56179012  0.61652545  0.35978528     0.04900
C2572       C  0.56588477  0.60595342  0.39404051    -0.07400
C2573       C  0.54250295  0.57973025  0.40529547    -0.08100
C2574       C  0.51613511  0.56264813  0.38254573    -0.02700
C2575       C  0.51046847  0.57501400  0.34940001     0.04100
N2576       N  0.98547169  0.55860043  0.32398914     0.66700
H2577       H  0.52877920  0.60773955  0.31221457     0.15600
H2578       H  0.54702597  0.57084242  0.43106362     0.15300
N2579       N  0.59470623  0.61939347  0.41697787     0.74400
O2580       O  0.95915641  0.57687311  0.31255808    -0.39100
O2581       O  0.99695191  0.53204899  0.30511513    -0.39000
O2582       O  0.58648275  0.64211623  0.44150608    -0.39700
O2583       O  0.62479667  0.60206380  0.41876172    -0.39800
C2584       C  0.88523513  0.57559027  0.99882614    -0.12100
C2585       C  0.89865377  0.54971510  0.02010035     0.04900
C2586       C  0.89553149  0.55614371  0.05639845    -0.07400
C2587       C  0.87606666  0.58609982  0.07011793    -0.08100
C2588       C  0.85783938  0.60957433  0.04854063    -0.02700
C2589       C  0.86517672  0.60527168  0.01238599     0.04100
N2590       N  0.85372244  0.63039933  0.98871181     0.66700
H2591       H  0.88932776  0.57239207  0.47091210     0.15600
H2592       H  0.87250983  0.58946176  0.09810929     0.15300
N2593       N  0.90932441  0.03151902  0.07972067     0.74400
O2594       O  0.87546375  0.65503777  0.98332271    -0.39100
O2595       O  0.82878139  0.62206842  0.96630107    -0.39000
O2596       O  0.88709579  0.01027138  0.09160622    -0.39700
O2597       O  0.94012371  0.03720027  0.09505536    -0.39800
C2598       C  0.56763186  0.91835218  0.33059789    -0.12100
C2599       C  0.53450852  0.90803417  0.34438019     0.04900
C2600       C  0.51902559  0.87528936  0.33235207    -0.07400
C2601       C  0.53439972  0.85561990  0.30385387    -0.08100
C2602       C  0.56681624  0.86641816  0.28841360    -0.02700
C2603       C  0.58495325  0.89721582  0.30412267     0.04100
N2604       N  0.62181736  0.90666797  0.29538824     0.66700
H2605       H  0.58025657  0.94293785  0.34046941     0.15600
H2606       H  0.52247612  0.83028077  0.29582596     0.15300
N2607       N  0.48976958  0.86013238  0.35075028     0.74400
O2608       O  0.62622805  0.93432138  0.27998123    -0.39100
O2609       O  0.64889499  0.89471540  0.31222613    -0.39000
O2610       O  0.96249204  0.84670341  0.33389609    -0.39700
O2611       O  0.49644443  0.85102705  0.38101444    -0.39800
C2612       C  0.52348991  0.56103178  0.02351460    -0.12100
C2613       C  0.54188345  0.52898546  0.01341692     0.04900
C2614       C  0.57211123  0.51831404  0.03347441    -0.07400
C2615       C  0.58346234  0.53964754  0.06277740    -0.08100
C2616       C  0.56456961  0.57156023  0.07415866    -0.02700
C2617       C  0.53477468  0.58253424  0.05292360     0.04100
N2618       N  0.51688642  0.61620086  0.05925293     0.66700
H2619       H  0.50023491  0.56982594  0.50805775     0.15600
H2620       H  0.60869362  0.53135556  0.07547574     0.15300
N2621       N  0.09100527  0.48537304  0.02530761     0.74400
O2622       O  0.52853353  0.64187437  0.54384481    -0.39100
O2623       O  0.48442832  0.61771933  0.07139867    -0.39000
O2624       O  0.62100096  0.98493331  0.00865837    -0.39700
O2625       O  0.08338807  0.45936433  0.04215212    -0.39800
C2626       C  0.58477864  0.59699354  0.60077629     0.86700
C2627       C  0.61187634  0.61742622  0.57979275    -0.53600
C2628       C  0.63478944  0.63912555  0.59883111     0.09600
C2629       C  0.62863038  0.63835689  0.63891561     0.20500
C2630       C  0.60883139  0.57771206  0.62720087    -0.54300
C2631       C  0.63316755  0.59808934  0.64640584     0.09700
C2632       C  0.56332626  0.62614935  0.62411884    -0.53800
C2633       C  0.58603080  0.64874056  0.64425435     0.10300
H2634       H  0.61216521  0.61562397  0.55148352     0.14800
H2635       H  0.64785525  0.65608744  0.65453594     0.00500
H2636       H  0.60716629  0.54977896  0.63007606     0.15100
H2637       H  0.53341036  0.62953194  0.62376674     0.14900
C2638       C  0.57383496  0.68467957  0.66501697     0.30200
C2639       C  0.57377436  0.75140799  0.70045817     0.30200
C2640       C  0.59013267  0.71422686  0.64654473    -0.06000
C2641       C  0.53400135  0.70108141  0.67348656    -0.06800
C2642       C  0.59157994  0.68782156  0.70111441    -0.06700
C2643       C  0.59059385  0.74790038  0.66438980    -0.06000
C2644       C  0.53378850  0.73537405  0.69213072    -0.06800
C2645       C  0.59100911  0.72156749  0.71895758    -0.06700
C2646       C  0.58469276  0.77115062  0.63944731    -0.32100
N2647       N  0.58197310  0.75371489  0.60777256     0.14400
C2648       C  0.58299968  0.71921291  0.61226464    -0.32100
H2649       H  0.57331820  0.69905068  0.59300131     0.16400
C2650       C  0.99647909  0.74396148  0.69854713    -0.31000
N2651       N  0.97453468  0.71725759  0.68424613     0.13200
C2652       C  0.99708368  0.69131169  0.66894974    -0.31000
C2653       C  0.58397632  0.71678302  0.75308639    -0.31300
N2654       N  0.58281096  0.68235691  0.75758093     0.13700
H2655       H  0.57380211  0.73716749  0.77194245     0.16300
C2656       C  0.58580557  0.66479719  0.72602175    -0.31300
H2657       H  0.57617969  0.63836565  0.72055924     0.16300
H2658       H  0.98732569  0.66674161  0.65617718     0.16300
H2659       H  0.57559065  0.79804396  0.64466701     0.16400
H2660       H  0.98608466  0.76790518  0.71243261     0.16300
C2661       C  0.58684864  0.83991257  0.76335718     0.86700
C2662       C  0.61372330  0.81902355  0.78540179    -0.53600
C2663       C  0.63589818  0.79576510  0.76718739     0.09600
C2664       C  0.62954822  0.79596849  0.72693217     0.20500
C2665       C  0.61018868  0.85760486  0.73701682    -0.54300
C2666       C  0.63432592  0.83601639  0.71899885     0.09700
C2667       C  0.56466422  0.81097235  0.74047957    -0.53800
C2668       C  0.58676781  0.78705068  0.72112737     0.10300
H2669       H  0.61419359  0.82152124  0.81372439     0.14800
H2670       H  0.64855864  0.77731335  0.71192722     0.00500
H2671       H  0.60824064  0.88540237  0.73356902     0.15100
H2672       H  0.53467632  0.80875678  0.74057833     0.14900
C2673       C  0.72690343  0.56918442  0.70866789     0.30200
C2674       C  0.66509276  0.58227758  0.66874105     0.30200
C2675       C  0.73314499  0.58924987  0.67685774    -0.06000
C2676       C  0.70656547  0.53610060  0.69378123    -0.06800
C2677       C  0.69516614  0.58961820  0.72722360    -0.06700
C2678       C  0.70232711  0.59595915  0.65725694    -0.06000
C2679       C  0.67456933  0.54179374  0.67285942    -0.06800
C2680       C  0.66341834  0.59619738  0.70707637    -0.06700
C2681       C  0.71494672  0.60790068  0.62727056    -0.32100
N2682       N  0.75225126  0.61369463  0.62958115     0.14400
C2683       C  0.76363430  0.59830373  0.65852103    -0.32100
H2684       H  0.79154418  0.58986355  0.66389460     0.16400
C2685       C  0.65805032  0.50847196  0.66776343    -0.31000
N2686       N  0.67827981  0.98474372  0.68557061     0.13200
C2687       C  0.70734561  0.50164421  0.70149020    -0.31000
C2688       C  0.63418909  0.59524961  0.72965319    -0.31300
N2689       N  0.64670252  0.59242631  0.76254972     0.13700
H2690       H  0.60564768  0.59093536  0.72187874     0.16300
C2691       C  0.68347629  0.58629597  0.76046828    -0.31300
H2692       H  0.70009732  0.57599385  0.78095864     0.16300
H2693       H  0.72765942  0.98894063  0.71728419     0.16300
H2694       H  0.69874553  0.60285260  0.60411243     0.16400
H2695       H  0.63336649  0.00182164  0.65249782     0.16300
C2696       C  0.82887618  0.63476646  0.56651511     0.86700
C2697       C  0.84727468  0.65940548  0.59551195    -0.53600
C2698       C  0.82328596  0.67824788  0.61693661     0.09600
C2699       C  0.78123042  0.67174063  0.60512851     0.20500
C2700       C  0.80106244  0.61244342  0.58546789    -0.54300
C2701       C  0.77623402  0.63100813  0.60590514     0.09700
C2702       C  0.80329109  0.65915425  0.54550914    -0.53800
C2703       C  0.77758528  0.67861396  0.56493819     0.10300
H2704       H  0.87700375  0.65919316  0.60041904     0.14800
H2705       H  0.76096914  0.68714451  0.62198619     0.00500
H2706       H  0.80190699  0.58378107  0.58389140     0.15100
H2707       H  0.80319444  0.66000310  0.51773948     0.14900
C2708       C  0.59153024  0.63383155  0.83893570     0.86700
C2709       C  0.57275722  0.65864979  0.81365303    -0.53600
C2710       C  0.59549224  0.66779171  0.78849950     0.09600
C2711       C  0.63513696  0.65458619  0.79167448     0.20500
C2712       C  0.60992530  0.60362289  0.81543132    -0.54300
C2713       C  0.63200578  0.61481759  0.79078857     0.09700
C2714       C  0.62510903  0.65609822  0.85444653    -0.53800
C2715       C  0.64793253  0.66734141  0.82883545     0.10300
H2716       H  0.54346314  0.66606602  0.81390195     0.14800
H2717       H  0.65289611  0.66295393  0.77051553     0.00500
H2718       H  0.60401613  0.57582822  0.81675792     0.15100
H2719       H  0.62924040  0.66332574  0.88188123     0.14900
C2720       C  0.83561198  0.73229613  0.71862692     0.30200
C2721       C  0.83518979  0.69772732  0.65289164     0.30200
C2722       C  0.81908823  0.75241901  0.68940391    -0.06000
C2723       C  0.87558047  0.72365602  0.70303010    -0.06800
C2724       C  0.81870252  0.69585230  0.71502616    -0.06700
C2725       C  0.81843654  0.73461152  0.65607316    -0.06000
C2726       C  0.87533629  0.70547158  0.66896187    -0.06800
C2727       C  0.81880427  0.67824731  0.68169273    -0.06700
C2728       C  0.82666932  0.75939969  0.63338641    -0.32100
N2729       N  0.83130149  0.79136511  0.65029848     0.14400
C2730       C  0.82840611  0.78675041  0.68439745    -0.32100
H2731       H  0.83894288  0.80541379  0.70470340     0.16400
C2732       C  0.91238800  0.70124695  0.65920021    -0.31000
N2733       N  0.93483161  0.71627720  0.68508141     0.13200
C2734       C  0.91278808  0.73009012  0.71166788    -0.31000
C2735       C  0.82699215  0.64338444  0.68637593    -0.31300
N2736       N  0.82952857  0.63828762  0.72041517     0.13700
H2737       H  0.83692548  0.62435588  0.66608888     0.16300
C2738       C  0.82613648  0.67035776  0.73763974    -0.31300
H2739       H  0.83604270  0.67577014  0.76391630     0.16300
H2740       H  0.92312475  0.74377551  0.73545547     0.16300
H2741       H  0.83621162  0.75316151  0.60728472     0.16400
H2742       H  0.92237010  0.68904895  0.63468794     0.16300
C2743       C  0.81540296  0.87445549  0.60254143     0.86700
C2744       C  0.79851608  0.84960939  0.57293239    -0.53600
C2745       C  0.77872056  0.82338063  0.58423159     0.09600
C2746       C  0.77689149  0.82333905  0.62353999     0.20500
C2747       C  0.78258736  0.88689206  0.62626109    -0.54300
C2748       C  0.76216261  0.85987000  0.63694031     0.09700
C2749       C  0.83841072  0.84863856  0.62439696    -0.53800
C2750       C  0.81727076  0.82214776  0.63525182     0.10300
H2751       H  0.80296477  0.85179766  0.54533975     0.14800
H2752       H  0.76058041  0.80100133  0.63194712     0.00500
H2753       H  0.77720858  0.91439373  0.63374764     0.15100
H2754       H  0.86798020  0.84877226  0.62925179     0.14900
C2755       C  0.81512881  0.55582070  0.76806220     0.86700
C2756       C  0.79613198  0.58018966  0.79672044    -0.53600
C2757       C  0.77663056  0.60674748  0.78467221     0.09600
C2758       C  0.77523465  0.60672202  0.74540282     0.20500
C2759       C  0.78273468  0.54262924  0.74344295    -0.54300
C2760       C  0.76143907  0.56997411  0.73192041     0.09700
C2761       C  0.83692179  0.58080297  0.74566163    -0.53800
C2762       C  0.81557327  0.60767117  0.73477312     0.10300
H2763       H  0.79962405  0.57794547  0.82454599     0.14800
H2764       H  0.75853241  0.62922035  0.73647696     0.00500
H2765       H  0.77824647  0.51524274  0.73531068     0.15100
H2766       H  0.86647056  0.57859484  0.74038925     0.14900
C2767       C  0.66628320  0.85065694  0.69783479     0.30200
C2768       C  0.72782115  0.86157032  0.65940628     0.30200
C2769       C  0.66458291  0.83628633  0.65984542    -0.06000
C2770       C  0.67537231  0.89081900  0.69346398    -0.06800
C2771       C  0.70336503  0.83626121  0.71063423    -0.06700
C2772       C  0.69621194  0.84177367  0.64024149    -0.06000
C2773       C  0.70736337  0.89548684  0.67334524    -0.06800
C2774       C  0.73422133  0.84178649  0.69170520    -0.06700
C2775       C  0.68399441  0.84607913  0.60699254    -0.32100
N2776       N  0.64709008  0.84165362  0.60457929     0.14400
C2777       C  0.63506332  0.83866316  0.63716233    -0.32100
H2778       H  0.60668107  0.84394115  0.64477095     0.16400
C2779       C  0.70771193  0.92984987  0.66510839    -0.31000
N2780       N  0.67836689  0.94751548  0.67990454     0.13200
C2781       C  0.65831290  0.92443349  0.69739878    -0.31000
C2782       C  0.76463116  0.83253805  0.71129340    -0.31300
N2783       N  0.75304201  0.81818697  0.74033540     0.13700
H2784       H  0.79251490  0.84027630  0.70671059     0.16300
C2785       C  0.71576483  0.82496130  0.74138770    -0.31300
H2786       H  0.69934155  0.83081853  0.76426835     0.16300
H2787       H  0.63322393  0.93176165  0.71140549     0.16300
H2788       H  0.70030035  0.85633198  0.58689768     0.16400
H2789       H  0.72779006  0.94209571  0.64968700     0.16300
C2790       C  0.59160229  0.80259366  0.52721458     0.86700
C2791       C  0.57249603  0.77814481  0.55167026    -0.53600
C2792       C  0.59506650  0.76804491  0.57734197     0.09600
C2793       C  0.63488395  0.78007426  0.57540805     0.20500
C2794       C  0.60948540  0.83204706  0.55151638    -0.54300
C2795       C  0.63177401  0.81993493  0.57632641     0.09700
C2796       C  0.62533852  0.77931946  0.51259818    -0.53800
C2797       C  0.64811398  0.76726554  0.53864656     0.10300
H2798       H  0.54364095  0.77029601  0.55007847     0.14800
H2799       H  0.65253607  0.77106604  0.59698376     0.00500
H2800       H  0.60355376  0.86004074  0.55027123     0.15100
H2801       H  0.62957360  0.77229243  0.48518721     0.14900
C2802       C  0.82815139  0.79378991  0.80634212     0.86700
C2803       C  0.84739036  0.76956331  0.77735543    -0.53600
C2804       C  0.82371151  0.75180029  0.75452730     0.09600
C2805       C  0.78149500  0.75894435  0.76505322     0.20500
C2806       C  0.80066592  0.81736474  0.78669655    -0.54300
C2807       C  0.77651458  0.79984739  0.76472019     0.09700
C2808       C  0.80243511  0.76971393  0.82559039    -0.53800
C2809       C  0.77733563  0.75137268  0.80499568     0.10300
H2810       H  0.87721474  0.76916829  0.77368295     0.14800
H2811       H  0.76150051  0.74436460  0.74725315     0.00500
H2812       H  0.80120374  0.84602338  0.78900445     0.15100
H2813       H  0.80136401  0.76879962  0.85326568     0.14900
C2814       C  0.74516568  0.70125262  0.54900237     0.30200
C2815       C  0.68297149  0.74297700  0.53691407     0.30200
C2816       C  0.74655329  0.73970604  0.56350605    -0.06000
C2817       C  0.73553010  0.70651279  0.50928104    -0.06800
C2818       C  0.70781224  0.68988236  0.56216838    -0.06700
C2819       C  0.71502826  0.76076848  0.55726089    -0.06000
C2820       C  0.70341126  0.72804600  0.50406100    -0.06800
C2821       C  0.67696916  0.71026142  0.55618120    -0.06700
C2822       C  0.72727522  0.79430255  0.55502010    -0.32100
N2823       N  0.76391451  0.79545875  0.56183788     0.14400
C2824       C  0.77606471  0.76202048  0.56413296    -0.32100
H2825       H  0.80475088  0.75393018  0.56132853     0.16400
C2826       C  0.70172761  0.73506994  0.96986404    -0.31000
N2827       N  0.73065795  0.71869650  0.95291061     0.13200
C2828       C  0.75137113  0.70086058  0.97616684    -0.31000
C2829       C  0.64676394  0.69248153  0.56672814    -0.31300
N2830       N  0.65849279  0.66338156  0.58215408     0.13700
H2831       H  0.61870038  0.69816859  0.55917326     0.16300
C2832       C  0.69545862  0.66019145  0.57513334    -0.31300
H2833       H  0.71159125  0.63658835  0.57079896     0.16300
H2834       H  0.77584271  0.68503683  0.96939693     0.16300
H2835       H  0.71117696  0.81579181  0.54553432     0.16400
H2836       H  0.68074023  0.75062246  0.95756051     0.16300
C2837       C  0.74495002  0.72988925  0.82017330     0.30200
C2838       C  0.68261168  0.69062400  0.83124472     0.30200
C2839       C  0.74578735  0.69162759  0.80531484    -0.06000
C2840       C  0.73575235  0.72469760  0.85980334    -0.06800
C2841       C  0.70770515  0.74290994  0.80673467    -0.06700
C2842       C  0.71416438  0.67180949  0.81112272    -0.06000
C2843       C  0.70350955  0.70437205  0.86442883    -0.06800
C2844       C  0.67668784  0.72377193  0.81219645    -0.06700
C2845       C  0.72586192  0.63776736  0.81311490    -0.32100
N2846       N  0.76230236  0.63524339  0.80663957     0.14400
C2847       C  0.77496649  0.66813471  0.80476964    -0.32100
H2848       H  0.80374656  0.67496779  0.80831734     0.16400
C2849       C  0.70164855  0.69756613  0.89860543    -0.31000
N2850       N  0.73064468  0.71295669  0.91618107     0.13200
C2851       C  0.75152378  0.72995451  0.89333965    -0.31000
C2852       C  0.64678213  0.74247896  0.80047114    -0.31300
N2853       N  0.65901935  0.77079219  0.78482357     0.13700
H2854       H  0.61862859  0.73794807  0.80724264     0.16300
C2855       C  0.69590743  0.77260507  0.79269473    -0.31300
H2856       H  0.71255948  0.79570459  0.79655721     0.16300
H2857       H  0.77601992  0.74495489  0.90072402     0.16300
H2858       H  0.70963471  0.61685363  0.82226767     0.16400
H2859       H  0.68045751  0.68292885  0.91049575     0.16300
O2860       O  0.98938315  0.50694984  0.48233384    -0.80000
O2861       O  0.91376895  0.51328567  0.89009894    -0.80000
O2862       O  0.49636626  0.52284948  0.92302541    -0.80000
O2863       O  0.90600291  0.51003654  0.96964372    -0.79900
O2864       O  0.98557784  0.50822413  0.86889859    -0.80100
O2865       O  0.93091933  0.49289932  0.51898819    -0.80000
O2866       O  0.86784874  0.48361907  0.90613773    -0.80000
O2867       O  0.54446486  0.98681885  0.96265065    -0.80000
C2868       C  0.52519214  0.50558038  0.98522011     1.09700
C2869       C  0.88004586  0.50647142  0.88757382     1.09600
C2870       C  0.49778455  0.53018890  0.89209734     1.09800
C2871       C  0.91257084  0.51590353  0.00277001     1.09600
O2872       O  0.91021985  0.93208111  0.48327020    -0.80000
O2873       O  0.97850885  0.93540237  0.85811708    -0.80000
O2874       O  0.51069492  0.92392611  0.94494639    -0.80000
O2875       O  0.89488622  0.91611569  0.91487775    -0.79900
O2876       O  0.90472201  0.93887494  0.86487232    -0.80000
O2877       O  0.98272950  0.93310451  0.49444691    -0.80000
O2878       O  0.85745535  0.95602235  0.96872793    -0.79900
O2879       O  0.52744023  0.95465513  0.89017591    -0.80000
Co2880     Co  0.94844363  0.97010426  0.97591429     1.51500
Co2881     Co  0.94543317  0.97379183  0.87328142     1.51700
Co2882     Co  0.50180375  0.97245565  0.93495509     1.51600
Co2883     Co  0.90114699  0.96224766  0.94147259     1.51500
O2884       O  0.95257775  0.96022454  0.92219393    -1.41900
C2885       C  0.87587851  0.93879995  0.99004648     1.09700
C2886       C  0.51263547  0.93374260  0.86607445     1.09800
C2887       C  0.50390240  0.91395095  0.97426228     1.09700
C2888       C  0.89560883  0.91314214  0.88179365     1.09700
C2889       C  0.87305349  0.85193230  0.88120049    -0.12100
C2890       C  0.88418782  0.87985367  0.86238600     0.04900
C2891       C  0.88573788  0.87445593  0.82560371    -0.07400
C2892       C  0.87280267  0.84307477  0.80893789    -0.08100
C2893       C  0.85543384  0.81769947  0.82754336    -0.02700
C2894       C  0.85934149  0.82078080  0.86439505     0.04100
N2895       N  0.85247254  0.79240767  0.88539806     0.66700
H2896       H  0.87481358  0.85418414  0.90939891     0.15600
H2897       H  0.87236934  0.84040722  0.78068243     0.15300
N2898       N  0.89894542  0.90069849  0.80437627     0.74400
O2899       O  0.87704559  0.76853989  0.88721578    -0.39100
O2900       O  0.82876748  0.79681223  0.90930676    -0.40600
O2901       O  0.92921632  0.89529943  0.78846732    -0.39700
O2902       O  0.87623170  0.92333446  0.79403499    -0.39800
C2903       C  0.55485760  0.86906485  0.46608416    -0.12100
C2904       C  0.52239511  0.88092950  0.48379813     0.04900
C2905       C  0.50899464  0.86103431  0.50971498    -0.07400
C2906       C  0.52920164  0.83172464  0.51928352    -0.08100
C2907       C  0.56381433  0.82117630  0.50403679    -0.02700
C2908       C  0.57581822  0.84010360  0.47620798     0.04100
N2909       N  0.61080596  0.83262541  0.45993933     0.66700
H2910       H  0.56555954  0.88371413  0.44549655     0.15600
H2911       H  0.51904062  0.82023377  0.54193690     0.15300
N2912       N  0.97655374  0.87176087  0.52887031     0.74400
O2913       O  0.61148435  0.81478353  0.43085649    -0.39100
O2914       O  0.63835634  0.85140393  0.46927830    -0.39000
O2915       O  0.94683020  0.85501712  0.02298524    -0.39700
O2916       O  0.98032863  0.89094447  0.55694777    -0.39800
C2917       C  0.86869459  0.54973482  0.80643096    -0.12100
C2918       C  0.83963763  0.53127016  0.78811042     0.04900
C2919       C  0.82426003  0.50236064  0.80398208    -0.07400
C2920       C  0.83654805  0.49461199  0.83732739    -0.08100
C2921       C  0.86011025  0.51780513  0.85694865    -0.02700
C2922       C  0.87309441  0.54770005  0.84217695     0.04100
N2923       N  0.88671605  0.57765775  0.86392852     0.66700
H2924       H  0.88064317  0.57241103  0.79597378     0.15600
H2925       H  0.82689193  0.97104072  0.84819861     0.15300
N2926       N  0.79497958  0.48180224  0.78778574     0.74400
O2927       O  0.90112808  0.60328119  0.85046876    -0.39100
O2928       O  0.87678675  0.58217912  0.89532270    -0.39000
O2929       O  0.80278296  0.95249425  0.77160028    -0.39700
O2930       O  0.76197249  0.48800196  0.79749435    -0.39800
C2931       C  0.80945963  0.92227466  0.56276004    -0.12100
C2932       C  0.83323873  0.90438572  0.58509682     0.04900
C2933       C  0.87182038  0.90633814  0.58030639    -0.07400
C2934       C  0.88491243  0.91783861  0.54910898    -0.08100
C2935       C  0.86022490  0.92865859  0.52314741    -0.02700
C2936       C  0.82221162  0.93273081  0.53118895     0.04100
N2937       N  0.79545814  0.94365419  0.50636790     0.66700
H2938       H  0.77965768  0.92238236  0.56669872     0.15600
H2939       H  0.91459491  0.91865825  0.54533195     0.15300
N2940       N  0.89774711  0.89834968  0.60712968     0.74400
O2941       O  0.77897550  0.92040001  0.98688745    -0.39100
O2942       O  0.78143717  0.97430474  0.01047601    -0.39000
O2943       O  0.92446683  0.87706840  0.60050304    -0.39700
O2944       O  0.89316186  0.91156569  0.63794698    -0.39800
C2945       C  0.53228109  0.60182204  0.83909981    -0.12100
C2946       C  0.56179390  0.61652558  0.85978412     0.04900
C2947       C  0.56589843  0.60594394  0.89403500    -0.07400
C2948       C  0.54251548  0.57972269  0.90529123    -0.08100
C2949       C  0.51613750  0.56265019  0.88254599    -0.02700
C2950       C  0.51046320  0.57502331  0.84940459     0.04100
N2951       N  0.98547052  0.55859424  0.82398481     0.66700
H2952       H  0.52876937  0.60775129  0.81221997     0.15600
H2953       H  0.54704591  0.57082763  0.93105549     0.15300
N2954       N  0.59473298  0.61936996  0.91696477     0.74400
O2955       O  0.95915365  0.57687111  0.81256271    -0.39100
O2956       O  0.99694355  0.53204415  0.80510470    -0.39000
O2957       O  0.58652602  0.64208787  0.94150239    -0.39700
O2958       O  0.62482054  0.60203274  0.91873065    -0.39800
C2959       C  0.88523384  0.57559062  0.49882178    -0.12100
C2960       C  0.89866208  0.54972220  0.52009931     0.04900
C2961       C  0.89554676  0.55615811  0.55639723    -0.07400
C2962       C  0.87607631  0.58611211  0.57011386    -0.08100
C2963       C  0.85784003  0.60957901  0.54853433    -0.02700
C2964       C  0.86517068  0.60526997  0.51237857     0.04100
N2965       N  0.85369830  0.63038521  0.48869834     0.66700
H2966       H  0.88933563  0.57239687  0.97091722     0.15600
H2967       H  0.87252393  0.58947869  0.59810559     0.15300
N2968       N  0.90938624  0.03156672  0.57971620     0.74400
O2969       O  0.87543039  0.65502477  0.48328955    -0.39100
O2970       O  0.82874805  0.62204085  0.46630105    -0.39000
O2971       O  0.88717769  0.01032348  0.59163730    -0.39700
O2972       O  0.94019808  0.03726674  0.59502162    -0.39800
C2973       C  0.56762995  0.91834061  0.83059706    -0.12100
C2974       C  0.53450598  0.90802386  0.84437921     0.04900
C2975       C  0.51902009  0.87528085  0.83234803    -0.07400
C2976       C  0.53439235  0.85561280  0.80384782    -0.08100
C2977       C  0.56681018  0.86640951  0.78840896    -0.02700
C2978       C  0.58494943  0.89720496  0.80412003     0.04100
N2979       N  0.62181417  0.90665519  0.79538564     0.66700
H2980       H  0.58025667  0.94292482  0.84047003     0.15600
H2981       H  0.52246671  0.83027512  0.79581768     0.15300
N2982       N  0.48976360  0.86012339  0.85074543     0.74400
O2983       O  0.62622676  0.93430841  0.77997884    -0.39100
O2984       O  0.64889119  0.89470028  0.81222265    -0.39000
O2985       O  0.96248069  0.84671748  0.83388071    -0.39700
O2986       O  0.49643590  0.85102385  0.88101211    -0.39800
C2987       C  0.52350454  0.56103332  0.52350080    -0.12100
C2988       C  0.54188600  0.52897821  0.51341466     0.04900
C2989       C  0.57209898  0.51829609  0.53348442    -0.07400
C2990       C  0.58344899  0.53962864  0.56278828    -0.08100
C2991       C  0.56456849  0.57155152  0.57415772    -0.02700
C2992       C  0.53478792  0.58253488  0.55291065     0.04100
N2993       N  0.51691477  0.61621008  0.55922899     0.66700
H2994       H  0.50020951  0.56981752  0.00808105     0.15600
H2995       H  0.60867082  0.53132675  0.57549508     0.15300
N2996       N  0.09101821  0.48538061  0.52529753     0.74400
O2997       O  0.52848539  0.64187374  0.04386964    -0.39100
O2998       O  0.48445218  0.61774530  0.57136440    -0.39000
O2999       O  0.62101963  0.98495700  0.50863484    -0.39700
O3000       O  0.08340455  0.45937038  0.54214123    -0.39800
loop_ 
_geom_bond_atom_site_label_1 
_geom_bond_atom_site_label_2 
_geom_bond_distance 
_geom_bond_site_symmetry_2 
_ccdc_geom_bond_type 
C1            C2   1.535       .  S
C1            C7   1.569       .  S
C1            C5   1.549       .  S
C1          C366   1.535       .  S
C2            H9   1.087       .  S
C2            C3   1.344       .  D
C3            C4   1.566       .  S
C3          N205   1.459       .  S
C4            C8   1.588       .  S
C4            C6   1.587       .  S
C4           H10   1.110       .  S
C5           H11   1.080       .  S
C5            C6   1.351       .  D
C6           C49   1.567       .  S
C7           H12   1.082       .  S
C7            C8   1.380       .  D
C8           C13   1.585       .  S
C13          C15   1.509       .  S
C13          C17   1.519       .  S
C13          C16   1.580       .  S
C14          C43   1.589       .  S
C14          C18   1.518       .  S
C14          C20   1.509       .  S
C14          C19   1.590       .  S
C15          C23   1.370       .  A
C15          C18   1.403       .  A
C16          C19   1.436       .  A
C16        C1527   1.390   1_455  A
C17          C31   1.371       .  A
C17          C20   1.405       .  A
C18          C21   1.370       .  A
C19        C1525   1.396   1_455  A
C20          C28   1.369       .  A
C21          N22   1.343       .  A
C21          H34   1.073       .  S
N22         C167   1.421       .  S
N22          C23   1.337       .  A
C23          H24   1.081       .  S
C25        C1519   1.396       .  A
C25          N26   1.371       .  A
C25          H35   1.081       .  S
N26          C27   1.367       .  A
N26         N108   1.430       .  S
C27        C1516   1.390       .  A
C27          H33   1.081       .  S
C28          N29   1.336       .  A
C28          H30   1.081       .  S
N29          C85   1.421       .  S
N29          C31   1.343       .  A
C31          H32   1.072       .  S
C36          C37   1.533       .  S
C36          C42   1.573       .  S
C36          C40   1.530       .  S
C36         C352   1.517       .  S
C37          H44   1.087       .  S
C37          C38   1.342       .  D
C38          C39   1.565       .  S
C38         N228   1.456       .  S
C39          C43   1.590       .  S
C39          C41   1.590       .  S
C39          H45   1.110       .  S
C40          H46   1.077       .  S
C40          C41   1.345       .  D
C41         C142   1.554       .  S
C42          H47   1.083       .  S
C42          C43   1.377       .  D
C48         C135   1.521       .  S
C48          C50   1.517       .  S
C48          C52   1.523       .  S
C48          C51   1.532       .  S
C49          C53   1.528       .  S
C49          C55   1.529       .  S
C49          C54   1.591       .  S
C50          C58   1.376       .  A
C50          C53   1.365       .  A
C51          C62   1.367       .  A
C51          C54   1.420       .  A
C52          C66   1.370       .  A
C52          C55   1.403       .  A
C53          C56   1.361       .  A
C54          C60   1.406       .  A
C55          C63   1.376       .  A
C56          N57   1.364       .  A
C56          H69   1.065       .  S
N57          C76   1.465       .  S
N57          C58   1.356       .  A
C58          H59   1.072       .  S
C60         N811   1.371   1_545  A
C60         H820   1.080       .  S
N61         C810   1.371       .  A
N61         C812   1.350       .  A
N61         N155   1.415       .  S
C62         N811   1.350   1_545  A
C62         H818   1.078   1_545  S
C63          N64   1.351       .  A
C63          H65   1.077       .  S
N64          C88   1.427       .  S
N64          C66   1.341       .  A
C66          H67   1.079       .  S
H68         C812   1.078       .  S
H70         C810   1.080       .  S
C71          C72   1.547       .  S
C71          C77   1.561       .  S
C71          C75   1.550       .  S
C71         C338   1.536       .  S
C72          H79   1.083       .  S
C72          C73   1.357       .  D
C73          C74   1.591       .  S
C73          C96   1.574       .  S
C74          C78   1.594       .  S
C74          C76   1.565       .  S
C74          H80   1.110       .  S
C75          H81   1.087       .  S
C75          C76   1.350       .  D
C77          H82   1.073       .  S
C77          C78   1.367       .  D
C78         C189   1.585       .  S
C83          C84   1.551       .  S
C83          C89   1.570       .  S
C83          C87   1.549       .  S
C83         C321   1.534       .  S
C84          H91   1.086       .  S
C84          C85   1.347       .  D
C85          C86   1.511       .  S
C86          C90   1.540       .  S
C86          C88   1.516       .  S
C86          H92   1.112       .  S
C87          H93   1.087       .  S
C87          C88   1.346       .  D
C89          H94   1.079       .  S
C89          C90   1.390       .  D
C90         C213   1.539       .  S
C95         C179   1.576       .  S
C95          C97   1.521       .  S
C95          C99   1.518       .  S
C95          C98   1.585       .  S
C96         C100   1.514       .  S
C96         C102   1.514       .  S
C96         C101   1.586       .  S
C97         C105   1.382       .  A
C97         C100   1.402       .  A
C98         C109   1.395       .  A
C98         C101   1.433       .  A
C99         C113   1.376       .  A
C99         C102   1.399       .  A
C100        C103   1.375       .  A
C101        C107   1.393       .  A
C102        C110   1.379       .  A
C103        N104   1.343       .  A
C103        H116   1.074       .  S
N104        C125   1.430       .  S
N104        C105   1.345       .  A
C105        H106   1.081       .  S
C107        N108   1.368       .  A
C107        H117   1.081       .  S
N108        C109   1.369       .  A
C109        H115   1.081       .  S
C110        N111   1.343       .  A
C110        H112   1.081       .  S
N111        C137   1.430       .  S
N111        C113   1.344       .  A
C113        H114   1.074       .  S
C118        C119   1.545       .  S
C118        C124   1.564       .  S
C118        C122   1.546       .  S
C118        C307   1.523       .  S
C119        H126   1.087       .  S
C119        C120   1.339       .  D
C120        C121   1.517       .  S
C120        N198   1.418       .  S
C121        C125   1.516       .  S
C121        C123   1.531       .  S
C121        H127   1.112       .  S
C122        H128   1.077       .  S
C122        C123   1.366       .  D
C123        C143   1.515       .  S
C124        H129   1.077       .  S
C124        C125   1.368       .  D
C130        C131   1.542       .  S
C130        C136   1.561       .  S
C130        C134   1.556       .  S
C130        C293   1.522       .  S
C131        H138   1.088       .  S
C131        C132   1.331       .  D
C132        C133   1.513       .  S
C132        N221   1.414       .  S
C133        C137   1.515       .  S
C133        C135   1.538       .  S
C133        H139   1.112       .  S
C134        H140   1.077       .  S
C134        C135   1.380       .  D
C136        H141   1.085       .  S
C136        C137   1.358       .  D
C142        C144   1.521       .  S
C142        C146   1.524       .  S
C142        C145   1.590       .  S
C143        C147   1.523       .  S
C143        C149   1.519       .  S
C143        C148   1.536       .  S
C144        C152   1.372       .  A
C144        C147   1.402       .  A
C145        C156   1.407       .  A
C145        C148   1.417       .  A
C146        C160   1.360       .  A
C146        C149   1.364       .  A
C147        C150   1.370       .  A
C148        C154   1.370       .  A
C149        C157   1.378       .  A
C150        N151   1.342       .  A
C150        H163   1.079       .  S
N151        C170   1.422       .  S
N151        C152   1.347       .  A
C152        H153   1.077       .  S
C154        N155   1.349       .  A
C154        H164   1.077       .  S
N155        C156   1.369       .  A
C156        H162   1.079       .  S
C157        N158   1.358       .  A
C157        H159   1.071       .  S
N158        C182   1.466       .  S
N158        C160   1.362       .  A
C160        H161   1.074       .  S
C165        C166   1.551       .  S
C165        C171   1.573       .  S
C165        C169   1.543       .  S
C165        C282   1.533       .  S
C166        H173   1.084       .  S
C166        C167   1.347       .  D
C167        C168   1.515       .  S
C168        C172   1.539       .  S
C168        C170   1.516       .  S
C168        H174   1.112       .  S
C169        H175   1.087       .  S
C169        C170   1.344       .  D
C171        H176   1.080   1_554  S
C171        C172   1.389       .  D
C172        C190   1.544       .  S
C177        C178   1.551       .  S
C177        C183   1.549       .  S
C177        C181   1.554       .  S
C177        C268   1.531       .  S
C178        H185   1.083       .  S
C178        C179   1.363       .  D
C179        C180   1.590       .  S
C180        C184   1.598       .  S
C180        C182   1.564       .  S
C180        H186   1.110       .  S
C181        H187   1.087       .  S
C181        C182   1.350       .  D
C183        H188   1.071       .  S
C183        C184   1.357       .  D
C184        C212   1.579       .  S
C189        C191   1.523       .  S
C189        C193   1.524       .  S
C189        C192   1.592       .  S
C190        C194   1.522       .  S
C190        C196   1.520       .  S
C190        C195   1.536       .  S
C191        C199   1.368       .  A
C191        C194   1.407       .  A
C192        C195   1.427       .  A
C192        C578   1.403   1_554  A
C193        C207   1.355       .  A
C193        C196   1.371       .  A
C194        C197   1.366       .  A
C195        C576   1.366   1_554  A
C196        C204   1.372       .  A
C197        N198   1.341       .  A
C197        H210   1.079       .  S
N198        C199   1.347       .  A
C199        H200   1.076       .  S
C201        C570   1.366       .  A
C201        N202   1.352       .  A
C201        H211   1.080       .  S
N202        C203   1.372       .  A
N202        N225   1.414       .  S
C203        C567   1.403       .  A
C203        H209   1.081       .  S
C204        N205   1.357       .  A
C204        H206   1.070       .  S
N205        C207   1.362       .  A
C207        H208   1.064       .  S
C212        C214   1.519       .  S
C212        C216   1.520       .  S
C212        C215   1.595       .  S
C213        C217   1.519       .  S
C213        C219   1.520       .  S
C213        C218   1.533       .  S
C214        C222   1.366       .  A
C214        C217   1.405       .  A
C215        C226   1.405       .  A
C215        C218   1.425       .  A
C216        C230   1.351       .  A
C216        C219   1.370       .  A
C217        C220   1.362       .  A
C218        C224   1.365       .  A
C219        C227   1.372       .  A
C220        N221   1.338       .  A
C220        H233   1.079       .  S
N221        C222   1.346       .  A
C222        H223   1.076       .  S
C224        N225   1.351       .  A
C224        H234   1.080       .  S
N225        C226   1.372       .  A
C226        H232   1.080       .  S
C227        N228   1.358       .  A
C227        H229   1.069       .  S
N228        C230   1.358       .  A
C230        H231   1.071       .  S
O235       C2118   1.292       .  A
O235      Co1380   2.048   1_545  S
O236        C244   1.245       .  A
O236      Co1006   1.944   1_545  S
O237        C245   1.248       .  A
O237      Co1007   2.013   1_645  S
O238        C246   1.297       .  A
O238      Co1008   2.048   1_545  S
O239       C1745   1.252       .  A
O239      Co1006   1.983   1_545  S
O240        C621   1.285   1_565  A
O240      Co1380   1.918   1_554  S
O241        C244   1.258   1_565  A
O241      Co1008   2.013       .  S
O242        C993   1.282       .  A
O242       Co257   1.918       .  S
C243       O2110   1.292   1_455  A
C243        O992   1.282   1_545  A
C243        C738   1.475       .  S
C244        C296   1.464       .  S
C245       O1739   1.252       .  A
C245        C324   1.484   1_655  S
C246        O615   1.285   1_545  A
C246        C710   1.482       .  S
O247        C635   1.283       .  A
O247       Co630   2.050       .  S
O248       C1761   1.263       .  A
O248       Co256   1.926       .  S
O249        C262   1.249       .  A
O249       Co257   1.936       .  S
O250        C263   1.271       .  A
O250       Co258   1.973       .  S
O251        C263   1.269       .  A
O251       Co256   1.998       .  S
O252       C2137   1.273       .  A
O252       Co630   2.023       .  S
O253        C260   1.266       .  A
O253       Co258   1.930       .  S
O254        C261   1.288       .  A
O254       Co257   2.029       .  S
Co255      O1360   2.048       .  S
Co255      O1365   1.918       .  S
Co255       O622   2.050       .  S
Co255       O627   2.023       .  S
Co255       O259   2.080       .  S
Co256       O986   1.944       .  S
Co256       O989   1.983       .  S
Co256       O259   2.006       .  S
Co257       O987   2.013   1_455  S
Co257      O1759   1.886   1_455  S
Co258       O988   2.048       .  S
Co258       O991   2.013       .  S
Co258       O259   2.000       .  S
O259      Co1757   1.886       .  S
C260        O622   1.283       .  A
C260        C685   1.483       .  S
C261       O1748   1.263   1_455  A
C261        C349   1.460       .  S
C262       O2127   1.273   1_455  A
C262        C654   1.482       .  S
C263        C265   1.478       .  S
C264        C265   1.400       .  A
C264        C269   1.397       .  A
C264        H271   1.084       .  S
C265        C266   1.417       .  A
C266        C267   1.392       .  A
C266        N273   1.432       .  S
C267        C268   1.407       .  A
C267        H272   1.085       .  S
C268        C269   1.420       .  A
C269        N270   1.427       .  S
N270        O274   1.262       .  A
N270        O275   1.263       .  A
N273        O277   1.261       .  A
N273        O276   1.262       .  A
C278        C279   1.409       .  A
C278        C283   1.403       .  A
C278        H285   1.084       .  S
C279        C280   1.396   1_556  A
C279        C637   1.482       .  S
C280        C281   1.393       .  A
C280       N1787   1.425   1_455  S
C281        C282   1.421       .  A
C281        H286   1.078       .  S
C282        C283   1.415   1_554  A
C283        N284   1.427       .  S
N284        O288   1.262       .  A
N284        O289   1.262       .  A
N287       C1780   1.425       .  S
N287        O291   1.261       .  A
N287        O665   1.262       .  A
O290        N662   1.262       .  A
C292        C293   1.416       .  A
C292        C297   1.392       .  A
C292        H299   1.079       .  S
C293        C294   1.424       .  A
C294        C295   1.405   1_545  A
C294        N301   1.428   1_545  S
C295        C296   1.402   1_565  A
C295       H1050   1.084       .  S
C296        C297   1.402       .  A
C297        N298   1.446       .  S
N298        O302   1.262       .  A
N298        O303   1.263       .  A
H300       C1045   1.084       .  S
N301        O305   1.262       .  A
N301       O1054   1.262       .  A
O304       N1051   1.262       .  A
C306        C307   1.411       .  A
C306        C311   1.396       .  A
C306        H313   1.084       .  S
C307        C308   1.406       .  A
C308        C309   1.402       .  A
C308        N315   1.430       .  S
C309        C310   1.410       .  A
C309        H314   1.081       .  S
C310        C311   1.409       .  A
C310        C635   1.483   1_554  S
C311        N312   1.428       .  S
N312        O691   1.262   1_554  A
N312        O692   1.262       .  A
N315        O319   1.263       .  A
N315        O318   1.261       .  A
O316        N687   1.262       .  A
O317        N687   1.262       .  A
C320        C321   1.414       .  A
C320        C325   1.383       .  A
C320        H327   1.083       .  S
C321        C322   1.416       .  A
C322        C323   1.413       .  A
C322        N329   1.427       .  S
C323        C324   1.412       .  A
C323        H328   1.084       .  S
C324        C325   1.408       .  A
C325       N1826   1.432   1_455  S
N326       C1825   1.432       .  S
N326        O330   1.261       .  A
N326        O331   1.262       .  A
N329        O333   1.262       .  A
N329        O332   1.262       .  A
C334        C335   1.407   1_556  A
C334        C339   1.398   1_556  A
C334        H716   1.084       .  S
C335        C336   1.405       .  A
C335        C621   1.482       .  S
C336        C337   1.397       .  A
C336       N1093   1.428       .  S
C337        C338   1.416       .  A
C337        H342   1.085       .  S
C338        C339   1.417       .  A
C339        N340   1.426   1_554  S
N340        O344   1.262       .  A
N340        O345   1.263       .  A
H341        C709   1.084       .  S
N343       C1086   1.428       .  S
N343        O347   1.262       .  A
N343        O346   1.262       .  A
C348        C349   1.386       .  A
C348        C353   1.393       .  A
C348        H355   1.084       .  S
C349        C350   1.413       .  A
C350        C351   1.393       .  A
C350        N357   1.431   1_455  S
C351        C352   1.398       .  A
C351        H356   1.081       .  S
C352        C353   1.436       .  A
C353        N354   1.431       .  S
N354        O358   1.262       .  A
N354        O359   1.262       .  A
N357        O361   1.262       .  A
N357       O1860   1.261       .  A
O360       N1857   1.261       .  A
C362        C363   1.406       .  A
C362        C367   1.401       .  A
C362        H744   1.084       .  S
C363        C364   1.399       .  A
C363        C618   1.475   1_554  S
C364        C365   1.396       .  A
C364       N1871   1.429   1_545  S
C365        C366   1.422       .  A
C365        H370   1.080       .  S
C366        C367   1.417       .  A
C367        N368   1.428       .  S
N368        O747   1.262       .  A
N368        O373   1.262   1_455  A
H369        C737   1.084       .  S
N371       C1864   1.429   1_565  S
N371        O375   1.262       .  A
N371       O2624   1.262       .  A
O372        N743   1.262       .  A
O374       N2621   1.262       .  A
C376        C377   1.535       .  S
C376        C382   1.569       .  S
C376        C380   1.549       .  S
C376        C741   1.535       .  S
C377        H384   1.087       .  S
C377        C378   1.344       .  D
C378        C379   1.566       .  S
C378        N580   1.459       .  S
C379        C383   1.588       .  S
C379        C381   1.587       .  S
C379        H385   1.110       .  S
C380        H386   1.080       .  S
C380        C381   1.351       .  D
C381        C424   1.567       .  S
C382        H387   1.082       .  S
C382        C383   1.380       .  D
C383        C388   1.585       .  S
C388        C390   1.509       .  S
C388        C392   1.519       .  S
C388        C391   1.580       .  S
C389        C418   1.589       .  S
C389        C393   1.518       .  S
C389        C395   1.509       .  S
C389        C394   1.590       .  S
C390        C398   1.370       .  A
C390        C393   1.403       .  A
C391       C1902   1.390   1_455  A
C391        C394   1.436       .  A
C392        C406   1.371       .  A
C392        C395   1.405       .  A
C393        C396   1.370       .  A
C394       C1900   1.396   1_455  A
C395        C403   1.369       .  A
C396        N397   1.343       .  A
C396        H409   1.073       .  S
N397        C542   1.421       .  S
N397        C398   1.337       .  A
C398        H399   1.081       .  S
C400       C1894   1.396       .  A
C400        N401   1.371       .  A
C400        H410   1.081       .  S
N401        C402   1.367       .  A
N401        N483   1.430       .  S
C402       C1891   1.390       .  A
C402        H408   1.081       .  S
C403        N404   1.336       .  A
C403        H405   1.081       .  S
N404        C460   1.421       .  S
N404        C406   1.343       .  A
C406        H407   1.072       .  S
C411        C412   1.533       .  S
C411        C417   1.573       .  S
C411        C415   1.530       .  S
C411        C727   1.517       .  S
C412        H419   1.087       .  S
C412        C413   1.342       .  D
C413        C414   1.565       .  S
C413        N603   1.456       .  S
C414        C418   1.590       .  S
C414        C416   1.590       .  S
C414        H420   1.110       .  S
C415        H421   1.077       .  S
C415        C416   1.345       .  D
C416        C517   1.554       .  S
C417        H422   1.083       .  S
C417        C418   1.377       .  D
C423        C510   1.521       .  S
C423        C425   1.517       .  S
C423        C427   1.523       .  S
C423        C426   1.532       .  S
C424        C428   1.528       .  S
C424        C430   1.529       .  S
C424        C429   1.591       .  S
C425        C433   1.376       .  A
C425        C428   1.365       .  A
C426        C437   1.367       .  A
C426        C429   1.420       .  A
C427        C441   1.370       .  A
C427        C430   1.403       .  A
C428        C431   1.361       .  A
C429        C435   1.406       .  A
C430        C438   1.376       .  A
C431        N432   1.364       .  A
C431        H444   1.065       .  S
N432        C451   1.465       .  S
N432        C433   1.356       .  A
C433        H434   1.072       .  S
C435       N1186   1.371   1_545  A
C435       H1195   1.080       .  S
N436       C1185   1.371       .  A
N436       C1187   1.350       .  A
N436        N530   1.415       .  S
C437       N1186   1.350   1_545  A
C437       H1193   1.078   1_545  S
C438        N439   1.351       .  A
C438        H440   1.077       .  S
N439        C463   1.427       .  S
N439        C441   1.341       .  A
C441        H442   1.079       .  S
H443       C1187   1.078       .  S
H445       C1185   1.080       .  S
C446        C447   1.547       .  S
C446        C452   1.561       .  S
C446        C450   1.550       .  S
C446        C713   1.536       .  S
C447        H454   1.083       .  S
C447        C448   1.357       .  D
C448        C449   1.591       .  S
C448        C471   1.574       .  S
C449        C453   1.594       .  S
C449        C451   1.565       .  S
C449        H455   1.110       .  S
C450        H456   1.087       .  S
C450        C451   1.350       .  D
C452        H457   1.073       .  S
C452        C453   1.367       .  D
C453        C564   1.585       .  S
C458        C459   1.551       .  S
C458        C464   1.570       .  S
C458        C462   1.549       .  S
C458        C696   1.534       .  S
C459        H466   1.086       .  S
C459        C460   1.347       .  D
C460        C461   1.511       .  S
C461        C465   1.540       .  S
C461        C463   1.516       .  S
C461        H467   1.112       .  S
C462        H468   1.087       .  S
C462        C463   1.346       .  D
C464        H469   1.079       .  S
C464        C465   1.390       .  D
C465        C588   1.539       .  S
C470        C554   1.576       .  S
C470        C472   1.521       .  S
C470        C474   1.518       .  S
C470        C473   1.585       .  S
C471        C475   1.514       .  S
C471        C477   1.514       .  S
C471        C476   1.586       .  S
C472        C480   1.382       .  A
C472        C475   1.402       .  A
C473        C484   1.395       .  A
C473        C476   1.433       .  A
C474        C488   1.376       .  A
C474        C477   1.399       .  A
C475        C478   1.375       .  A
C476        C482   1.393       .  A
C477        C485   1.379       .  A
C478        N479   1.343       .  A
C478        H491   1.074       .  S
N479        C500   1.430       .  S
N479        C480   1.345       .  A
C480        H481   1.081       .  S
C482        N483   1.368       .  A
C482        H492   1.081       .  S
N483        C484   1.369       .  A
C484        H490   1.081       .  S
C485        N486   1.343       .  A
C485        H487   1.081       .  S
N486        C512   1.430       .  S
N486        C488   1.344       .  A
C488        H489   1.074       .  S
C493        C494   1.545       .  S
C493        C499   1.564       .  S
C493        C497   1.546       .  S
C493        C682   1.523       .  S
C494        H501   1.087       .  S
C494        C495   1.339       .  D
C495        C496   1.517       .  S
C495        N573   1.418       .  S
C496        C500   1.516       .  S
C496        C498   1.531       .  S
C496        H502   1.112       .  S
C497        H503   1.077       .  S
C497        C498   1.366       .  D
C498        C518   1.515       .  S
C499        H504   1.077       .  S
C499        C500   1.368       .  D
C505        C506   1.542       .  S
C505        C511   1.561       .  S
C505        C509   1.556       .  S
C505        C668   1.522       .  S
C506        H513   1.088       .  S
C506        C507   1.331       .  D
C507        C508   1.513       .  S
C507        N596   1.414       .  S
C508        C512   1.515       .  S
C508        C510   1.538       .  S
C508        H514   1.112       .  S
C509        H515   1.077       .  S
C509        C510   1.380       .  D
C511        H516   1.085       .  S
C511        C512   1.358       .  D
C517        C519   1.521       .  S
C517        C521   1.524       .  S
C517        C520   1.590       .  S
C518        C522   1.523       .  S
C518        C524   1.519       .  S
C518        C523   1.536       .  S
C519        C527   1.373       .  A
C519        C522   1.402       .  A
C520        C531   1.407       .  A
C520        C523   1.417       .  A
C521        C535   1.360       .  A
C521        C524   1.364       .  A
C522        C525   1.370       .  A
C523        C529   1.370       .  A
C524        C532   1.378       .  A
C525        N526   1.342       .  A
C525        H538   1.079       .  S
N526        C545   1.422       .  S
N526        C527   1.347       .  A
C527        H528   1.077       .  S
C529        N530   1.349       .  A
C529        H539   1.077       .  S
N530        C531   1.369       .  A
C531        H537   1.079       .  S
C532        N533   1.358       .  A
C532        H534   1.071       .  S
N533        C557   1.466       .  S
N533        C535   1.362       .  A
C535        H536   1.074       .  S
C540        C541   1.551       .  S
C540        C546   1.573       .  S
C540        C544   1.543       .  S
C540        C657   1.533       .  S
C541        H548   1.084       .  S
C541        C542   1.347       .  D
C542        C543   1.515       .  S
C543        C547   1.539       .  S
C543        C545   1.516       .  S
C543        H549   1.112       .  S
C544        H550   1.087       .  S
C544        C545   1.344       .  D
C546        H551   1.080       .  S
C546        C547   1.389       .  D
C547        C565   1.544       .  S
C552        C553   1.551       .  S
C552        C558   1.549       .  S
C552        C556   1.554       .  S
C552        C643   1.531       .  S
C553        H560   1.083       .  S
C553        C554   1.363       .  D
C554        C555   1.590       .  S
C555        C559   1.598       .  S
C555        C557   1.564       .  S
C555        H561   1.110       .  S
C556        H562   1.087       .  S
C556        C557   1.350       .  D
C558        H563   1.071       .  S
C558        C559   1.357       .  D
C559        C587   1.579       .  S
C564        C566   1.523       .  S
C564        C568   1.524       .  S
C564        C567   1.592       .  S
C565        C569   1.522       .  S
C565        C571   1.520       .  S
C565        C570   1.536       .  S
C566        C574   1.368       .  A
C566        C569   1.407       .  A
C567        C570   1.427       .  A
C568        C582   1.355       .  A
C568        C571   1.371       .  A
C569        C572   1.366       .  A
C571        C579   1.372       .  A
C572        N573   1.341       .  A
C572        H585   1.079       .  S
N573        C574   1.347       .  A
C574        H575   1.076       .  S
C576        N577   1.352       .  A
C576        H586   1.080       .  S
N577        C578   1.372       .  A
N577        N600   1.414       .  S
C578        H584   1.081       .  S
C579        N580   1.357       .  A
C579        H581   1.070       .  S
N580        C582   1.362       .  A
C582        H583   1.064       .  S
C587        C589   1.519       .  S
C587        C591   1.520       .  S
C587        C590   1.595       .  S
C588        C592   1.519       .  S
C588        C594   1.520       .  S
C588        C593   1.533       .  S
C589        C597   1.366       .  A
C589        C592   1.405       .  A
C590        C601   1.405       .  A
C590        C593   1.425       .  A
C591        C605   1.351       .  A
C591        C594   1.370       .  A
C592        C595   1.362       .  A
C593        C599   1.365       .  A
C594        C602   1.372       .  A
C595        N596   1.338       .  A
C595        H608   1.079       .  S
N596        C597   1.346       .  A
C597        H598   1.076       .  S
C599        N600   1.351       .  A
C599        H609   1.080       .  S
N600        C601   1.372       .  A
C601        H607   1.080       .  S
C602        N603   1.358       .  A
C602        H604   1.069       .  S
N603        C605   1.358       .  A
C605        H606   1.070       .  S
O610       C1743   1.292       .  A
O610      Co1005   2.048   1_545  S
O611        C619   1.245       .  A
O611      Co1381   1.944   1_545  S
O612        C620   1.248       .  A
O612      Co1382   2.013   1_645  S
O613        C621   1.297   1_556  A
O613      Co1383   2.048   1_545  S
O614       C2120   1.252       .  A
O614      Co1381   1.983   1_545  S
O615      Co1005   1.918       .  S
O616        C619   1.258   1_565  A
O616      Co1383   2.013       .  S
O617       C1368   1.282       .  A
O617       Co632   1.918       .  S
C618       O1735   1.292   1_455  A
C618       O1367   1.282   1_545  A
C619        C671   1.464       .  S
C620       O2114   1.252       .  A
C620        C699   1.484   1_655  S
O623       C2136   1.263       .  A
O623       Co631   1.926       .  S
O624        C637   1.249       .  A
O624       Co632   1.936       .  S
O625        C638   1.271       .  A
O625       Co633   1.973       .  S
O626        C638   1.269       .  A
O626       Co631   1.998       .  S
O627       C1762   1.273       .  A
O628        C635   1.266       .  A
O628       Co633   1.930       .  S
O629        C636   1.288       .  A
O629       Co632   2.029       .  S
Co630       O985   2.048       .  S
Co630       O990   1.918   1_556  S
Co630       O634   2.080       .  S
Co631      O1361   1.944       .  S
Co631      O1364   1.983       .  S
Co631       O634   2.006       .  S
Co632      O1362   2.013   1_455  S
Co632      O2134   1.886   1_455  S
Co633      O1363   2.048       .  S
Co633      O1366   2.013       .  S
Co633       O634   2.000       .  S
O634      Co2132   1.886       .  S
C636       O2123   1.263   1_455  A
C636        C724   1.460       .  S
C637       O1752   1.273   1_455  A
C638        C640   1.478       .  S
C639        C640   1.400       .  A
C639        C644   1.397       .  A
C639        H646   1.084       .  S
C640        C641   1.417       .  A
C641        C642   1.392       .  A
C641        N648   1.432       .  S
C642        C643   1.407       .  A
C642        H647   1.085       .  S
C643        C644   1.420       .  A
C644        N645   1.427       .  S
N645        O649   1.262       .  A
N645        O650   1.263       .  A
N648        O652   1.261       .  A
N648        O651   1.262       .  A
C653        C654   1.409       .  A
C653        C658   1.403       .  A
C653        H660   1.084       .  S
C654        C655   1.396       .  A
C655        C656   1.393       .  A
C655       N2162   1.425   1_455  S
C656        C657   1.421       .  A
C656        H661   1.078       .  S
C657        C658   1.415       .  A
C658        N659   1.427       .  S
N659        O663   1.262       .  A
N659        O664   1.262       .  A
N662       C2155   1.425       .  S
N662        O666   1.261       .  A
C667        C668   1.416       .  A
C667        C672   1.392       .  A
C667        H674   1.079       .  S
C668        C669   1.424       .  A
C669        C670   1.405   1_545  A
C669        N676   1.428   1_545  S
C670        C671   1.402   1_565  A
C670       H1425   1.084       .  S
C671        C672   1.402       .  A
C672        N673   1.446       .  S
N673        O677   1.262       .  A
N673        O678   1.263       .  A
H675       C1420   1.084       .  S
N676        O680   1.262       .  A
N676       O1429   1.262       .  A
O679       N1426   1.262       .  A
C681        C682   1.411       .  A
C681        C686   1.396       .  A
C681        H688   1.084       .  S
C682        C683   1.406       .  A
C683        C684   1.402       .  A
C683        N690   1.430       .  S
C684        C685   1.410       .  A
C684        H689   1.081       .  S
C685        C686   1.409       .  A
C686        N687   1.428       .  S
N690        O694   1.263       .  A
N690        O693   1.261       .  A
C695        C696   1.414       .  A
C695        C700   1.383       .  A
C695        H702   1.083       .  S
C696        C697   1.416       .  A
C697        C698   1.413       .  A
C697        N704   1.427       .  S
C698        C699   1.412       .  A
C698        H703   1.084       .  S
C699        C700   1.408       .  A
C700       N2201   1.432   1_455  S
N701       C2200   1.432       .  S
N701        O705   1.261       .  A
N701        O706   1.262       .  A
N704        O708   1.262       .  A
N704        O707   1.262       .  A
C709        C710   1.407       .  A
C709        C714   1.398       .  A
C710        C711   1.405       .  A
C711        C712   1.397       .  A
C711       N1468   1.428       .  S
C712        C713   1.416       .  A
C712        H717   1.085       .  S
C713        C714   1.417       .  A
C714        N715   1.426       .  S
N715        O719   1.262       .  A
N715        O720   1.263       .  A
N718       C1461   1.428       .  S
N718        O722   1.262       .  A
N718        O721   1.262       .  A
C723        C724   1.386       .  A
C723        C728   1.393       .  A
C723        H730   1.084       .  S
C724        C725   1.413       .  A
C725        C726   1.393       .  A
C725        N732   1.431   1_455  S
C726        C727   1.398       .  A
C726        H731   1.081       .  S
C727        C728   1.436       .  A
C728        N729   1.431       .  S
N729        O733   1.262       .  A
N729        O734   1.262       .  A
N732        O736   1.262       .  A
N732       O2235   1.261       .  A
O735       N2232   1.261       .  A
C737        C738   1.406       .  A
C737        C742   1.401       .  A
C738        C739   1.399       .  A
C739        C740   1.396       .  A
C739       N2246   1.429   1_545  S
C740        C741   1.422       .  A
C740        H745   1.080       .  S
C741        C742   1.417       .  A
C742        N743   1.428       .  S
N743        O748   1.262   1_455  A
N746       C2239   1.429   1_565  S
N746        O750   1.262       .  A
N746       O2999   1.262       .  A
O749       N2996   1.262       .  A
C751        C752   1.535       .  S
C751        C757   1.569       .  S
C751        C755   1.549       .  S
C751       C1116   1.535       .  S
C752        H759   1.087       .  S
C752        C753   1.344       .  D
C753        C754   1.566       .  S
C753        N955   1.459       .  S
C754        C758   1.588       .  S
C754        C756   1.587       .  S
C754        H760   1.110       .  S
C755        H761   1.080       .  S
C755        C756   1.351       .  D
C756        C799   1.567       .  S
C757        H762   1.082       .  S
C757        C758   1.380       .  D
C758        C763   1.585       .  S
C763        C765   1.509       .  S
C763        C767   1.519       .  S
C763        C766   1.580       .  S
C764        C793   1.589       .  S
C764        C768   1.518       .  S
C764        C770   1.509       .  S
C764        C769   1.590       .  S
C765        C773   1.370       .  A
C765        C768   1.403       .  A
C766       C2277   1.390   1_455  A
C766        C769   1.436       .  A
C767        C781   1.371       .  A
C767        C770   1.405       .  A
C768        C771   1.370       .  A
C769       C2275   1.396   1_455  A
C770        C778   1.369       .  A
C771        N772   1.343       .  A
C771        H784   1.073       .  S
N772        C917   1.421       .  S
N772        C773   1.337       .  A
C773        H774   1.081       .  S
C775       C2269   1.396       .  A
C775        N776   1.371       .  A
C775        H785   1.081       .  S
N776        C777   1.367       .  A
N776        N858   1.430       .  S
C777       C2266   1.390       .  A
C777        H783   1.081       .  S
C778        N779   1.336       .  A
C778        H780   1.081       .  S
N779        C835   1.421       .  S
N779        C781   1.343       .  A
C781        H782   1.072       .  S
C786        C787   1.533       .  S
C786        C792   1.573       .  S
C786        C790   1.530       .  S
C786       C1102   1.517       .  S
C787        H794   1.087       .  S
C787        C788   1.342       .  D
C788        C789   1.565       .  S
C788        N978   1.456       .  S
C789        C793   1.590       .  S
C789        C791   1.590       .  S
C789        H795   1.110       .  S
C790        H796   1.077       .  S
C790        C791   1.345       .  D
C791        C892   1.554       .  S
C792        H797   1.083       .  S
C792        C793   1.377       .  D
C798        C885   1.521       .  S
C798        C800   1.517       .  S
C798        C802   1.523       .  S
C798        C801   1.532       .  S
C799        C803   1.528       .  S
C799        C805   1.529       .  S
C799        C804   1.591       .  S
C800        C808   1.376       .  A
C800        C803   1.365       .  A
C801        C812   1.367       .  A
C801        C804   1.420       .  A
C802        C816   1.370       .  A
C802        C805   1.403       .  A
C803        C806   1.361       .  A
C804        C810   1.406       .  A
C805        C813   1.376       .  A
C806        N807   1.364       .  A
C806        H819   1.065       .  S
N807        C826   1.465       .  S
N807        C808   1.356       .  A
C808        H809   1.072       .  S
N811        N905   1.415       .  S
C813        N814   1.351       .  A
C813        H815   1.077       .  S
N814        C838   1.427       .  S
N814        C816   1.341       .  A
C816        H817   1.079       .  S
C821        C822   1.547       .  S
C821        C827   1.561       .  S
C821        C825   1.550       .  S
C821       C1088   1.536       .  S
C822        H829   1.083       .  S
C822        C823   1.357       .  D
C823        C824   1.591       .  S
C823        C846   1.574       .  S
C824        C828   1.594       .  S
C824        C826   1.565       .  S
C824        H830   1.110       .  S
C825        H831   1.087       .  S
C825        C826   1.350       .  D
C827        H832   1.073       .  S
C827        C828   1.367       .  D
C828        C939   1.585       .  S
C833        C834   1.551       .  S
C833        C839   1.570       .  S
C833        C837   1.549       .  S
C833       C1071   1.534       .  S
C834        H841   1.086       .  S
C834        C835   1.347       .  D
C835        C836   1.511       .  S
C836        C840   1.540       .  S
C836        C838   1.516       .  S
C836        H842   1.112       .  S
C837        H843   1.087       .  S
C837        C838   1.346       .  D
C839        H844   1.079       .  S
C839        C840   1.390       .  D
C840        C963   1.539       .  S
C845        C929   1.576       .  S
C845        C847   1.521       .  S
C845        C849   1.518       .  S
C845        C848   1.585       .  S
C846        C850   1.514       .  S
C846        C852   1.514       .  S
C846        C851   1.586       .  S
C847        C855   1.382       .  A
C847        C850   1.402       .  A
C848        C859   1.395       .  A
C848        C851   1.433       .  A
C849        C863   1.376       .  A
C849        C852   1.399       .  A
C850        C853   1.375       .  A
C851        C857   1.393       .  A
C852        C860   1.379       .  A
C853        N854   1.343       .  A
C853        H866   1.074       .  S
N854        C875   1.430       .  S
N854        C855   1.345       .  A
C855        H856   1.081       .  S
C857        N858   1.368       .  A
C857        H867   1.081       .  S
N858        C859   1.369       .  A
C859        H865   1.081       .  S
C860        N861   1.343       .  A
C860        H862   1.081       .  S
N861        C887   1.430       .  S
N861        C863   1.344       .  A
C863        H864   1.074       .  S
C868        C869   1.545       .  S
C868        C874   1.564       .  S
C868        C872   1.546       .  S
C868       C1057   1.523       .  S
C869        H876   1.087       .  S
C869        C870   1.339       .  D
C870        C871   1.517       .  S
C870        N948   1.418       .  S
C871        C875   1.516       .  S
C871        C873   1.531       .  S
C871        H877   1.112       .  S
C872        H878   1.077       .  S
C872        C873   1.366       .  D
C873        C893   1.515       .  S
C874        H879   1.077       .  S
C874        C875   1.368       .  D
C880        C881   1.542       .  S
C880        C886   1.561       .  S
C880        C884   1.556       .  S
C880       C1043   1.522       .  S
C881        H888   1.088       .  S
C881        C882   1.331       .  D
C882        C883   1.513       .  S
C882        N971   1.414       .  S
C883        C887   1.515       .  S
C883        C885   1.538       .  S
C883        H889   1.112       .  S
C884        H890   1.077       .  S
C884        C885   1.380       .  D
C886        H891   1.085       .  S
C886        C887   1.358       .  D
C892        C894   1.521       .  S
C892        C896   1.524       .  S
C892        C895   1.590       .  S
C893        C897   1.523       .  S
C893        C899   1.519       .  S
C893        C898   1.536       .  S
C894        C902   1.372       .  A
C894        C897   1.402       .  A
C895        C906   1.407       .  A
C895        C898   1.417       .  A
C896        C910   1.360       .  A
C896        C899   1.364       .  A
C897        C900   1.370       .  A
C898        C904   1.370       .  A
C899        C907   1.378       .  A
C900        N901   1.342       .  A
C900        H913   1.079       .  S
N901        C920   1.422       .  S
N901        C902   1.347       .  A
C902        H903   1.077       .  S
C904        N905   1.349       .  A
C904        H914   1.077       .  S
N905        C906   1.369       .  A
C906        H912   1.079       .  S
C907        N908   1.358       .  A
C907        H909   1.071       .  S
N908        C932   1.466       .  S
N908        C910   1.362       .  A
C910        H911   1.074       .  S
C915        C916   1.551       .  S
C915        C921   1.573       .  S
C915        C919   1.543       .  S
C915       C1032   1.533       .  S
C916        H923   1.084       .  S
C916        C917   1.347       .  D
C917        C918   1.515       .  S
C918        C922   1.539       .  S
C918        C920   1.516       .  S
C918        H924   1.112       .  S
C919        H925   1.087       .  S
C919        C920   1.344       .  D
C921        H926   1.080   1_554  S
C921        C922   1.389       .  D
C922        C940   1.544       .  S
C927        C928   1.551       .  S
C927        C933   1.549       .  S
C927        C931   1.554       .  S
C927       C1018   1.531       .  S
C928        H935   1.083       .  S
C928        C929   1.363       .  D
C929        C930   1.590       .  S
C930        C934   1.598       .  S
C930        C932   1.564       .  S
C930        H936   1.110       .  S
C931        H937   1.087       .  S
C931        C932   1.350       .  D
C933        H938   1.071       .  S
C933        C934   1.357       .  D
C934        C962   1.579       .  S
C939        C941   1.523       .  S
C939        C943   1.524       .  S
C939        C942   1.592       .  S
C940        C944   1.522       .  S
C940        C946   1.520       .  S
C940        C945   1.536       .  S
C941        C949   1.368       .  A
C941        C944   1.407       .  A
C942       C1328   1.403   1_554  A
C942        C945   1.427       .  A
C943        C957   1.355       .  A
C943        C946   1.371       .  A
C944        C947   1.366       .  A
C945       C1326   1.366   1_554  A
C946        C954   1.372       .  A
C947        N948   1.341       .  A
C947        H960   1.079       .  S
N948        C949   1.347       .  A
C949        H950   1.076       .  S
C951       C1320   1.366       .  A
C951        N952   1.352       .  A
C951        H961   1.080       .  S
N952        C953   1.372       .  A
N952        N975   1.414       .  S
C953       C1317   1.403       .  A
C953        H959   1.081       .  S
C954        N955   1.357       .  A
C954        H956   1.070       .  S
N955        C957   1.362       .  A
C957        H958   1.064       .  S
C962        C964   1.519       .  S
C962        C966   1.520       .  S
C962        C965   1.595       .  S
C963        C967   1.519       .  S
C963        C969   1.520       .  S
C963        C968   1.533       .  S
C964        C972   1.366       .  A
C964        C967   1.405       .  A
C965        C976   1.405       .  A
C965        C968   1.425       .  A
C966        C980   1.351       .  A
C966        C969   1.370       .  A
C967        C970   1.362       .  A
C968        C974   1.365       .  A
C969        C977   1.372       .  A
C970        N971   1.338       .  A
C970        H983   1.079       .  S
N971        C972   1.346       .  A
C972        H973   1.076       .  S
C974        N975   1.351       .  A
C974        H984   1.080       .  S
N975        C976   1.372       .  A
C976        H982   1.080       .  S
C977        N978   1.358       .  A
C977        H979   1.069       .  S
N978        C980   1.358       .  A
C980        H981   1.070       .  S
O985       C2868   1.292       .  A
O986        C994   1.245       .  A
O987        C995   1.248       .  A
O988        C996   1.297       .  A
O989       C2495   1.252       .  A
O990       C1371   1.285       .  A
O991        C994   1.258       .  A
O992      Co1007   1.918       .  S
C993       O2860   1.292   1_455  A
C993       C1488   1.475       .  S
C994       C1046   1.464       .  S
C995       O2489   1.252       .  A
C995       C1074   1.484   1_655  S
C996       O1365   1.285       .  A
C996       C1460   1.482       .  S
O997       C1385   1.283       .  A
O997      Co1380   2.050       .  S
O998       C2511   1.263       .  A
O998      Co1006   1.926       .  S
O999       C1012   1.249       .  A
O999      Co1007   1.936       .  S
O1000      C1013   1.271       .  A
O1000     Co1008   1.973       .  S
O1001      C1013   1.269       .  A
O1001     Co1006   1.998       .  S
O1002      C2887   1.273       .  A
O1002     Co1380   2.023       .  S
O1003      C1010   1.266       .  A
O1003     Co1008   1.930       .  S
O1004      C1011   1.288       .  A
O1004     Co1007   2.029       .  S
Co1005     O1372   2.050       .  S
Co1005     O1377   2.023       .  S
Co1005     O1009   2.080       .  S
Co1006     O1009   2.006       .  S
Co1007     O2509   1.886   1_455  S
Co1008     O1009   2.000       .  S
O1009     Co2507   1.886       .  S
C1010      O1372   1.283       .  A
C1010      C1435   1.483       .  S
C1011      O2498   1.263   1_455  A
C1011      C1099   1.460       .  S
C1012      O2877   1.273   1_455  A
C1012      C1404   1.482       .  S
C1013      C1015   1.478       .  S
C1014      C1015   1.400       .  A
C1014      C1019   1.397       .  A
C1014      H1021   1.084       .  S
C1015      C1016   1.417       .  A
C1016      C1017   1.392       .  A
C1016      N1023   1.432       .  S
C1017      C1018   1.407       .  A
C1017      H1022   1.085       .  S
C1018      C1019   1.420       .  A
C1019      N1020   1.427       .  S
N1020      O1024   1.262       .  A
N1020      O1025   1.263       .  A
N1023      O1027   1.261       .  A
N1023      O1026   1.262       .  A
C1028      C1029   1.409       .  A
C1028      C1033   1.403       .  A
C1028      H1035   1.084       .  S
C1029      C1030   1.396   1_556  A
C1029      C1387   1.482       .  S
C1030      C1031   1.393       .  A
C1030      N2537   1.425   1_455  S
C1031      C1032   1.421       .  A
C1031      H1036   1.078       .  S
C1032      C1033   1.415   1_554  A
C1033      N1034   1.427       .  S
N1034      O1038   1.262       .  A
N1034      O1039   1.262       .  A
N1037      C2530   1.425       .  S
N1037      O1041   1.261       .  A
N1037      O1415   1.262       .  A
O1040      N1412   1.262       .  A
C1042      C1043   1.416       .  A
C1042      C1047   1.392       .  A
C1042      H1049   1.079       .  S
C1043      C1044   1.424       .  A
C1044      C1045   1.405       .  A
C1044      N1051   1.428       .  S
C1045      C1046   1.402       .  A
C1046      C1047   1.402       .  A
C1047      N1048   1.446       .  S
N1048      O1052   1.262       .  A
N1048      O1053   1.263       .  A
N1051      O1055   1.262       .  A
C1056      C1057   1.411       .  A
C1056      C1061   1.396       .  A
C1056      H1063   1.084       .  S
C1057      C1058   1.406       .  A
C1058      C1059   1.402       .  A
C1058      N1065   1.430       .  S
C1059      C1060   1.410       .  A
C1059      H1064   1.081       .  S
C1060      C1061   1.409       .  A
C1060      C1385   1.483   1_554  S
C1061      N1062   1.428       .  S
N1062      O1441   1.262   1_554  A
N1062      O1442   1.262       .  A
N1065      O1069   1.263       .  A
N1065      O1068   1.261       .  A
O1066      N1437   1.262       .  A
O1067      N1437   1.262       .  A
C1070      C1071   1.414       .  A
C1070      C1075   1.383       .  A
C1070      H1077   1.083       .  S
C1071      C1072   1.416       .  A
C1072      C1073   1.413       .  A
C1072      N1079   1.427       .  S
C1073      C1074   1.412       .  A
C1073      H1078   1.084       .  S
C1074      C1075   1.408       .  A
C1075      N2576   1.432   1_455  S
N1076      C2575   1.432       .  S
N1076      O1080   1.261       .  A
N1076      O1081   1.262       .  A
N1079      O1083   1.262       .  A
N1079      O1082   1.262       .  A
C1084      C1085   1.407   1_556  A
C1084      C1089   1.398   1_556  A
C1084      H1466   1.084       .  S
C1085      C1086   1.405       .  A
C1085      C1371   1.482       .  S
C1086      C1087   1.397       .  A
C1087      C1088   1.416       .  A
C1087      H1092   1.085       .  S
C1088      C1089   1.417       .  A
C1089      N1090   1.426   1_554  S
N1090      O1094   1.262       .  A
N1090      O1095   1.263       .  A
H1091      C1459   1.084       .  S
N1093      O1097   1.262       .  A
N1093      O1096   1.262       .  A
C1098      C1099   1.386       .  A
C1098      C1103   1.393       .  A
C1098      H1105   1.084       .  S
C1099      C1100   1.413       .  A
C1100      C1101   1.393       .  A
C1100      N1107   1.431   1_455  S
C1101      C1102   1.398       .  A
C1101      H1106   1.081       .  S
C1102      C1103   1.436       .  A
C1103      N1104   1.431       .  S
N1104      O1108   1.262       .  A
N1104      O1109   1.262       .  A
N1107      O1111   1.262       .  A
N1107      O2610   1.261       .  A
O1110      N2607   1.261       .  A
C1112      C1113   1.406       .  A
C1112      C1117   1.401       .  A
C1112      H1494   1.084       .  S
C1113      C1114   1.399       .  A
C1113      C1368   1.475   1_554  S
C1114      C1115   1.396       .  A
C1114      N2621   1.429       .  S
C1115      C1116   1.422       .  A
C1115      H1120   1.080       .  S
C1116      C1117   1.417       .  A
C1117      N1118   1.428       .  S
N1118      O1497   1.262       .  A
N1118      O1123   1.262   1_455  A
H1119      C1487   1.084       .  S
N1121      C2614   1.429       .  S
N1121      O1125   1.262       .  A
N1121      O1874   1.262       .  A
O1122      N1493   1.262       .  A
O1124      N1871   1.262       .  A
C1126      C1127   1.535       .  S
C1126      C1132   1.569       .  S
C1126      C1130   1.549       .  S
C1126      C1491   1.535       .  S
C1127      H1134   1.087       .  S
C1127      C1128   1.344       .  D
C1128      C1129   1.566       .  S
C1128      N1330   1.459       .  S
C1129      C1133   1.588       .  S
C1129      C1131   1.587       .  S
C1129      H1135   1.110       .  S
C1130      H1136   1.080       .  S
C1130      C1131   1.351       .  D
C1131      C1174   1.567       .  S
C1132      H1137   1.082       .  S
C1132      C1133   1.380       .  D
C1133      C1138   1.585       .  S
C1138      C1140   1.509       .  S
C1138      C1142   1.519       .  S
C1138      C1141   1.580       .  S
C1139      C1168   1.589       .  S
C1139      C1143   1.518       .  S
C1139      C1145   1.509       .  S
C1139      C1144   1.590       .  S
C1140      C1148   1.370       .  A
C1140      C1143   1.403       .  A
C1141      C2652   1.390   1_455  A
C1141      C1144   1.436       .  A
C1142      C1156   1.371       .  A
C1142      C1145   1.405       .  A
C1143      C1146   1.370       .  A
C1144      C2650   1.396   1_455  A
C1145      C1153   1.369       .  A
C1146      N1147   1.343       .  A
C1146      H1159   1.073       .  S
N1147      C1292   1.421       .  S
N1147      C1148   1.337       .  A
C1148      H1149   1.081       .  S
C1150      C2644   1.396       .  A
C1150      N1151   1.371       .  A
C1150      H1160   1.081       .  S
N1151      C1152   1.367       .  A
N1151      N1233   1.430       .  S
C1152      C2641   1.390       .  A
C1152      H1158   1.081       .  S
C1153      N1154   1.336       .  A
C1153      H1155   1.081       .  S
N1154      C1210   1.421       .  S
N1154      C1156   1.343       .  A
C1156      H1157   1.072       .  S
C1161      C1162   1.533       .  S
C1161      C1167   1.573       .  S
C1161      C1165   1.530       .  S
C1161      C1477   1.517       .  S
C1162      H1169   1.087       .  S
C1162      C1163   1.342       .  D
C1163      C1164   1.565       .  S
C1163      N1353   1.456       .  S
C1164      C1168   1.590       .  S
C1164      C1166   1.590       .  S
C1164      H1170   1.110       .  S
C1165      H1171   1.077       .  S
C1165      C1166   1.345       .  D
C1166      C1267   1.554       .  S
C1167      H1172   1.083       .  S
C1167      C1168   1.377       .  D
C1173      C1260   1.521       .  S
C1173      C1175   1.517       .  S
C1173      C1177   1.523       .  S
C1173      C1176   1.532       .  S
C1174      C1178   1.528       .  S
C1174      C1180   1.529       .  S
C1174      C1179   1.591       .  S
C1175      C1183   1.376       .  A
C1175      C1178   1.365       .  A
C1176      C1187   1.367       .  A
C1176      C1179   1.420       .  A
C1177      C1191   1.370       .  A
C1177      C1180   1.403       .  A
C1178      C1181   1.361       .  A
C1179      C1185   1.406       .  A
C1180      C1188   1.376       .  A
C1181      N1182   1.364       .  A
C1181      H1194   1.065       .  S
N1182      C1201   1.465       .  S
N1182      C1183   1.356       .  A
C1183      H1184   1.072       .  S
N1186      N1280   1.415       .  S
C1188      N1189   1.351       .  A
C1188      H1190   1.077       .  S
N1189      C1213   1.427       .  S
N1189      C1191   1.341       .  A
C1191      H1192   1.079       .  S
C1196      C1197   1.547       .  S
C1196      C1202   1.561       .  S
C1196      C1200   1.550       .  S
C1196      C1463   1.536       .  S
C1197      H1204   1.083       .  S
C1197      C1198   1.357       .  D
C1198      C1199   1.591       .  S
C1198      C1221   1.574       .  S
C1199      C1203   1.594       .  S
C1199      C1201   1.565       .  S
C1199      H1205   1.110       .  S
C1200      H1206   1.087       .  S
C1200      C1201   1.350       .  D
C1202      H1207   1.073       .  S
C1202      C1203   1.367       .  D
C1203      C1314   1.585       .  S
C1208      C1209   1.551       .  S
C1208      C1214   1.570       .  S
C1208      C1212   1.549       .  S
C1208      C1446   1.534       .  S
C1209      H1216   1.086       .  S
C1209      C1210   1.347       .  D
C1210      C1211   1.511       .  S
C1211      C1215   1.540       .  S
C1211      C1213   1.516       .  S
C1211      H1217   1.112       .  S
C1212      H1218   1.087       .  S
C1212      C1213   1.346       .  D
C1214      H1219   1.079       .  S
C1214      C1215   1.390       .  D
C1215      C1338   1.539       .  S
C1220      C1304   1.576       .  S
C1220      C1222   1.521       .  S
C1220      C1224   1.518       .  S
C1220      C1223   1.585       .  S
C1221      C1225   1.514       .  S
C1221      C1227   1.514       .  S
C1221      C1226   1.586       .  S
C1222      C1230   1.382       .  A
C1222      C1225   1.402       .  A
C1223      C1234   1.395       .  A
C1223      C1226   1.433       .  A
C1224      C1238   1.376       .  A
C1224      C1227   1.399       .  A
C1225      C1228   1.375       .  A
C1226      C1232   1.393       .  A
C1227      C1235   1.379       .  A
C1228      N1229   1.343       .  A
C1228      H1241   1.074       .  S
N1229      C1250   1.430       .  S
N1229      C1230   1.345       .  A
C1230      H1231   1.081       .  S
C1232      N1233   1.368       .  A
C1232      H1242   1.081       .  S
N1233      C1234   1.369       .  A
C1234      H1240   1.081       .  S
C1235      N1236   1.343       .  A
C1235      H1237   1.081       .  S
N1236      C1262   1.430       .  S
N1236      C1238   1.344       .  A
C1238      H1239   1.074       .  S
C1243      C1244   1.545       .  S
C1243      C1249   1.564       .  S
C1243      C1247   1.546       .  S
C1243      C1432   1.523       .  S
C1244      H1251   1.087       .  S
C1244      C1245   1.339       .  D
C1245      C1246   1.517       .  S
C1245      N1323   1.418       .  S
C1246      C1250   1.516       .  S
C1246      C1248   1.531       .  S
C1246      H1252   1.112       .  S
C1247      H1253   1.077       .  S
C1247      C1248   1.366       .  D
C1248      C1268   1.515       .  S
C1249      H1254   1.077       .  S
C1249      C1250   1.368       .  D
C1255      C1256   1.542       .  S
C1255      C1261   1.561       .  S
C1255      C1259   1.556       .  S
C1255      C1418   1.522       .  S
C1256      H1263   1.088       .  S
C1256      C1257   1.331       .  D
C1257      C1258   1.513       .  S
C1257      N1346   1.414       .  S
C1258      C1262   1.515       .  S
C1258      C1260   1.538       .  S
C1258      H1264   1.112       .  S
C1259      H1265   1.077       .  S
C1259      C1260   1.380       .  D
C1261      H1266   1.085       .  S
C1261      C1262   1.358       .  D
C1267      C1269   1.521       .  S
C1267      C1271   1.524       .  S
C1267      C1270   1.590       .  S
C1268      C1272   1.523       .  S
C1268      C1274   1.519       .  S
C1268      C1273   1.536       .  S
C1269      C1277   1.373       .  A
C1269      C1272   1.402       .  A
C1270      C1281   1.407       .  A
C1270      C1273   1.417       .  A
C1271      C1285   1.360       .  A
C1271      C1274   1.364       .  A
C1272      C1275   1.370       .  A
C1273      C1279   1.370       .  A
C1274      C1282   1.378       .  A
C1275      N1276   1.342       .  A
C1275      H1288   1.079       .  S
N1276      C1295   1.422       .  S
N1276      C1277   1.347       .  A
C1277      H1278   1.077       .  S
C1279      N1280   1.349       .  A
C1279      H1289   1.077       .  S
N1280      C1281   1.369       .  A
C1281      H1287   1.079       .  S
C1282      N1283   1.358       .  A
C1282      H1284   1.071       .  S
N1283      C1307   1.466       .  S
N1283      C1285   1.362       .  A
C1285      H1286   1.074       .  S
C1290      C1291   1.551       .  S
C1290      C1296   1.573       .  S
C1290      C1294   1.543       .  S
C1290      C1407   1.533       .  S
C1291      H1298   1.084       .  S
C1291      C1292   1.347       .  D
C1292      C1293   1.515       .  S
C1293      C1297   1.539       .  S
C1293      C1295   1.516       .  S
C1293      H1299   1.112       .  S
C1294      H1300   1.087       .  S
C1294      C1295   1.344       .  D
C1296      H1301   1.080       .  S
C1296      C1297   1.389       .  D
C1297      C1315   1.544       .  S
C1302      C1303   1.551       .  S
C1302      C1308   1.549       .  S
C1302      C1306   1.554       .  S
C1302      C1393   1.531       .  S
C1303      H1310   1.083       .  S
C1303      C1304   1.363       .  D
C1304      C1305   1.590       .  S
C1305      C1309   1.598       .  S
C1305      C1307   1.564       .  S
C1305      H1311   1.110       .  S
C1306      H1312   1.087       .  S
C1306      C1307   1.350       .  D
C1308      H1313   1.071       .  S
C1308      C1309   1.357       .  D
C1309      C1337   1.579       .  S
C1314      C1316   1.523       .  S
C1314      C1318   1.524       .  S
C1314      C1317   1.592       .  S
C1315      C1319   1.522       .  S
C1315      C1321   1.520       .  S
C1315      C1320   1.536       .  S
C1316      C1324   1.368       .  A
C1316      C1319   1.407       .  A
C1317      C1320   1.427       .  A
C1318      C1332   1.355       .  A
C1318      C1321   1.371       .  A
C1319      C1322   1.366       .  A
C1321      C1329   1.372       .  A
C1322      N1323   1.341       .  A
C1322      H1335   1.079       .  S
N1323      C1324   1.347       .  A
C1324      H1325   1.076       .  S
C1326      N1327   1.352       .  A
C1326      H1336   1.080       .  S
N1327      C1328   1.372       .  A
N1327      N1350   1.414       .  S
C1328      H1334   1.081       .  S
C1329      N1330   1.357       .  A
C1329      H1331   1.070       .  S
N1330      C1332   1.362       .  A
C1332      H1333   1.064       .  S
C1337      C1339   1.519       .  S
C1337      C1341   1.520       .  S
C1337      C1340   1.595       .  S
C1338      C1342   1.519       .  S
C1338      C1344   1.520       .  S
C1338      C1343   1.533       .  S
C1339      C1347   1.366       .  A
C1339      C1342   1.405       .  A
C1340      C1351   1.405       .  A
C1340      C1343   1.425       .  A
C1341      C1355   1.351       .  A
C1341      C1344   1.370       .  A
C1342      C1345   1.362       .  A
C1343      C1349   1.365       .  A
C1344      C1352   1.372       .  A
C1345      N1346   1.338       .  A
C1345      H1358   1.079       .  S
N1346      C1347   1.346       .  A
C1347      H1348   1.076       .  S
C1349      N1350   1.351       .  A
C1349      H1359   1.080       .  S
N1350      C1351   1.372       .  A
C1351      H1357   1.080       .  S
C1352      N1353   1.358       .  A
C1352      H1354   1.069       .  S
N1353      C1355   1.358       .  A
C1355      H1356   1.070       .  S
O1360      C2493   1.292       .  A
O1361      C1369   1.245       .  A
O1362      C1370   1.248       .  A
O1363      C1371   1.297   1_556  A
O1364      C2870   1.252       .  A
O1366      C1369   1.258       .  A
O1367     Co1382   1.918       .  S
C1368      O2485   1.292   1_455  A
C1369      C1421   1.464       .  S
C1370      O2864   1.252       .  A
C1370      C1449   1.484   1_655  S
O1373      C2886   1.263       .  A
O1373     Co1381   1.926       .  S
O1374      C1387   1.249       .  A
O1374     Co1382   1.936       .  S
O1375      C1388   1.271       .  A
O1375     Co1383   1.973       .  S
O1376      C1388   1.269       .  A
O1376     Co1381   1.998       .  S
O1377      C2512   1.273       .  A
O1378      C1385   1.266       .  A
O1378     Co1383   1.930       .  S
O1379      C1386   1.288       .  A
O1379     Co1382   2.029       .  S
Co1380     O1384   2.080       .  S
Co1381     O1384   2.006       .  S
Co1382     O2884   1.886   1_455  S
Co1383     O1384   2.000       .  S
O1384     Co2882   1.886       .  S
C1386      O2873   1.263   1_455  A
C1386      C1474   1.460       .  S
C1387      O2502   1.273   1_455  A
C1388      C1390   1.478       .  S
C1389      C1390   1.400       .  A
C1389      C1394   1.397       .  A
C1389      H1396   1.084       .  S
C1390      C1391   1.417       .  A
C1391      C1392   1.392       .  A
C1391      N1398   1.432       .  S
C1392      C1393   1.407       .  A
C1392      H1397   1.085       .  S
C1393      C1394   1.420       .  A
C1394      N1395   1.427       .  S
N1395      O1399   1.262       .  A
N1395      O1400   1.263       .  A
N1398      O1402   1.261       .  A
N1398      O1401   1.262       .  A
C1403      C1404   1.409       .  A
C1403      C1408   1.403       .  A
C1403      H1410   1.084       .  S
C1404      C1405   1.396       .  A
C1405      C1406   1.393       .  A
C1405      N2912   1.425   1_455  S
C1406      C1407   1.421       .  A
C1406      H1411   1.078       .  S
C1407      C1408   1.415       .  A
C1408      N1409   1.427       .  S
N1409      O1413   1.262       .  A
N1409      O1414   1.262       .  A
N1412      C2905   1.425       .  S
N1412      O1416   1.261       .  A
C1417      C1418   1.416       .  A
C1417      C1422   1.392       .  A
C1417      H1424   1.079       .  S
C1418      C1419   1.424       .  A
C1419      C1420   1.405       .  A
C1419      N1426   1.428       .  S
C1420      C1421   1.402       .  A
C1421      C1422   1.402       .  A
C1422      N1423   1.446       .  S
N1423      O1427   1.262       .  A
N1423      O1428   1.263       .  A
N1426      O1430   1.262       .  A
C1431      C1432   1.411       .  A
C1431      C1436   1.396       .  A
C1431      H1438   1.084       .  S
C1432      C1433   1.406       .  A
C1433      C1434   1.402       .  A
C1433      N1440   1.430       .  S
C1434      C1435   1.410       .  A
C1434      H1439   1.081       .  S
C1435      C1436   1.409       .  A
C1436      N1437   1.428       .  S
N1440      O1444   1.263       .  A
N1440      O1443   1.261       .  A
C1445      C1446   1.414       .  A
C1445      C1450   1.383       .  A
C1445      H1452   1.083       .  S
C1446      C1447   1.416       .  A
C1447      C1448   1.413       .  A
C1447      N1454   1.427       .  S
C1448      C1449   1.412       .  A
C1448      H1453   1.084       .  S
C1449      C1450   1.408       .  A
C1450      N2951   1.432   1_455  S
N1451      C2950   1.432       .  S
N1451      O1455   1.261       .  A
N1451      O1456   1.262       .  A
N1454      O1458   1.262       .  A
N1454      O1457   1.262       .  A
C1459      C1460   1.407       .  A
C1459      C1464   1.398       .  A
C1460      C1461   1.405       .  A
C1461      C1462   1.397       .  A
C1462      C1463   1.416       .  A
C1462      H1467   1.085       .  S
C1463      C1464   1.417       .  A
C1464      N1465   1.426       .  S
N1465      O1469   1.262       .  A
N1465      O1470   1.263       .  A
N1468      O1472   1.262       .  A
N1468      O1471   1.262       .  A
C1473      C1474   1.386       .  A
C1473      C1478   1.393       .  A
C1473      H1480   1.084       .  S
C1474      C1475   1.413       .  A
C1475      C1476   1.393       .  A
C1475      N1482   1.431   1_455  S
C1476      C1477   1.398       .  A
C1476      H1481   1.081       .  S
C1477      C1478   1.436       .  A
C1478      N1479   1.431       .  S
N1479      O1483   1.262       .  A
N1479      O1484   1.262       .  A
N1482      O1486   1.262       .  A
N1482      O2985   1.261       .  A
O1485      N2982   1.261       .  A
C1487      C1488   1.406       .  A
C1487      C1492   1.401       .  A
C1488      C1489   1.399       .  A
C1489      C1490   1.396       .  A
C1489      N2996   1.429       .  S
C1490      C1491   1.422       .  A
C1490      H1495   1.080       .  S
C1491      C1492   1.417       .  A
C1492      N1493   1.428       .  S
N1493      O1498   1.262   1_455  A
N1496      C2989   1.429       .  S
N1496      O1500   1.262       .  A
N1496      O2249   1.262       .  A
O1499      N2246   1.262       .  A
C1501      C1502   1.535       .  S
C1501      C1507   1.569       .  S
C1501      C1505   1.549       .  S
C1501      C1866   1.535       .  S
C1502      H1509   1.087       .  S
C1502      C1503   1.344       .  D
C1503      C1504   1.566       .  S
C1503      N1705   1.459       .  S
C1504      C1508   1.588       .  S
C1504      C1506   1.587       .  S
C1504      H1510   1.110       .  S
C1505      H1511   1.080       .  S
C1505      C1506   1.351       .  D
C1506      C1549   1.567       .  S
C1507      H1512   1.082       .  S
C1507      C1508   1.380       .  D
C1508      C1513   1.585       .  S
C1513      C1515   1.509       .  S
C1513      C1517   1.519       .  S
C1513      C1516   1.580       .  S
C1514      C1543   1.589       .  S
C1514      C1518   1.518       .  S
C1514      C1520   1.509       .  S
C1514      C1519   1.590       .  S
C1515      C1523   1.370       .  A
C1515      C1518   1.403       .  A
C1516      C1519   1.436       .  A
C1517      C1531   1.371       .  A
C1517      C1520   1.405       .  A
C1518      C1521   1.370       .  A
C1520      C1528   1.369       .  A
C1521      N1522   1.343       .  A
C1521      H1534   1.073       .  S
N1522      C1667   1.421       .  S
N1522      C1523   1.337       .  A
C1523      H1524   1.081       .  S
C1525      N1526   1.371       .  A
C1525      H1535   1.081       .  S
N1526      C1527   1.367       .  A
N1526      N1608   1.430       .  S
C1527      H1533   1.081       .  S
C1528      N1529   1.336       .  A
C1528      H1530   1.081       .  S
N1529      C1585   1.421       .  S
N1529      C1531   1.343       .  A
C1531      H1532   1.072       .  S
C1536      C1537   1.533       .  S
C1536      C1542   1.573       .  S
C1536      C1540   1.530       .  S
C1536      C1852   1.517       .  S
C1537      H1544   1.087       .  S
C1537      C1538   1.342       .  D
C1538      C1539   1.565       .  S
C1538      N1728   1.456       .  S
C1539      C1543   1.590       .  S
C1539      C1541   1.590       .  S
C1539      H1545   1.110       .  S
C1540      H1546   1.077       .  S
C1540      C1541   1.345       .  D
C1541      C1642   1.554       .  S
C1542      H1547   1.083       .  S
C1542      C1543   1.377       .  D
C1548      C1635   1.521       .  S
C1548      C1550   1.517       .  S
C1548      C1552   1.523       .  S
C1548      C1551   1.532       .  S
C1549      C1553   1.528       .  S
C1549      C1555   1.529       .  S
C1549      C1554   1.591       .  S
C1550      C1558   1.376       .  A
C1550      C1553   1.365       .  A
C1551      C1562   1.367       .  A
C1551      C1554   1.420       .  A
C1552      C1566   1.370       .  A
C1552      C1555   1.403       .  A
C1553      C1556   1.361       .  A
C1554      C1560   1.406       .  A
C1555      C1563   1.376       .  A
C1556      N1557   1.364       .  A
C1556      H1569   1.065       .  S
N1557      C1576   1.465       .  S
N1557      C1558   1.356       .  A
C1558      H1559   1.072       .  S
C1560      N2311   1.371   1_545  A
C1560      H2320   1.080       .  S
N1561      C2310   1.371       .  A
N1561      C2312   1.350       .  A
N1561      N1655   1.415       .  S
C1562      N2311   1.350   1_545  A
C1562      H2318   1.078   1_545  S
C1563      N1564   1.351       .  A
C1563      H1565   1.077       .  S
N1564      C1588   1.427       .  S
N1564      C1566   1.341       .  A
C1566      H1567   1.079       .  S
H1568      C2312   1.078       .  S
H1570      C2310   1.080       .  S
C1571      C1572   1.547       .  S
C1571      C1577   1.561       .  S
C1571      C1575   1.550       .  S
C1571      C1838   1.536       .  S
C1572      H1579   1.083       .  S
C1572      C1573   1.357       .  D
C1573      C1574   1.591       .  S
C1573      C1596   1.574       .  S
C1574      C1578   1.594       .  S
C1574      C1576   1.565       .  S
C1574      H1580   1.110       .  S
C1575      H1581   1.087       .  S
C1575      C1576   1.350       .  D
C1577      H1582   1.073       .  S
C1577      C1578   1.367       .  D
C1578      C1689   1.585       .  S
C1583      C1584   1.551       .  S
C1583      C1589   1.570       .  S
C1583      C1587   1.549       .  S
C1583      C1821   1.534       .  S
C1584      H1591   1.086       .  S
C1584      C1585   1.347       .  D
C1585      C1586   1.511       .  S
C1586      C1590   1.540       .  S
C1586      C1588   1.516       .  S
C1586      H1592   1.112       .  S
C1587      H1593   1.087       .  S
C1587      C1588   1.346       .  D
C1589      H1594   1.079       .  S
C1589      C1590   1.390       .  D
C1590      C1713   1.539       .  S
C1595      C1679   1.576       .  S
C1595      C1597   1.521       .  S
C1595      C1599   1.518       .  S
C1595      C1598   1.585       .  S
C1596      C1600   1.514       .  S
C1596      C1602   1.514       .  S
C1596      C1601   1.586       .  S
C1597      C1605   1.382       .  A
C1597      C1600   1.402       .  A
C1598      C1609   1.395       .  A
C1598      C1601   1.433       .  A
C1599      C1613   1.376       .  A
C1599      C1602   1.399       .  A
C1600      C1603   1.375       .  A
C1601      C1607   1.393       .  A
C1602      C1610   1.379       .  A
C1603      N1604   1.343       .  A
C1603      H1616   1.074       .  S
N1604      C1625   1.430       .  S
N1604      C1605   1.345       .  A
C1605      H1606   1.081       .  S
C1607      N1608   1.368       .  A
C1607      H1617   1.081       .  S
N1608      C1609   1.369       .  A
C1609      H1615   1.081       .  S
C1610      N1611   1.343       .  A
C1610      H1612   1.081       .  S
N1611      C1637   1.430       .  S
N1611      C1613   1.344       .  A
C1613      H1614   1.074       .  S
C1618      C1619   1.545       .  S
C1618      C1624   1.564       .  S
C1618      C1622   1.546       .  S
C1618      C1807   1.523       .  S
C1619      H1626   1.087       .  S
C1619      C1620   1.339       .  D
C1620      C1621   1.517       .  S
C1620      N1698   1.418       .  S
C1621      C1625   1.516       .  S
C1621      C1623   1.531       .  S
C1621      H1627   1.112       .  S
C1622      H1628   1.077       .  S
C1622      C1623   1.366       .  D
C1623      C1643   1.515       .  S
C1624      H1629   1.077       .  S
C1624      C1625   1.368       .  D
C1630      C1631   1.542       .  S
C1630      C1636   1.561       .  S
C1630      C1634   1.556       .  S
C1630      C1793   1.522       .  S
C1631      H1638   1.088       .  S
C1631      C1632   1.331       .  D
C1632      C1633   1.513       .  S
C1632      N1721   1.414       .  S
C1633      C1637   1.515       .  S
C1633      C1635   1.538       .  S
C1633      H1639   1.112       .  S
C1634      H1640   1.077       .  S
C1634      C1635   1.380       .  D
C1636      H1641   1.085       .  S
C1636      C1637   1.358       .  D
C1642      C1644   1.521       .  S
C1642      C1646   1.524       .  S
C1642      C1645   1.590       .  S
C1643      C1647   1.523       .  S
C1643      C1649   1.519       .  S
C1643      C1648   1.536       .  S
C1644      C1652   1.372       .  A
C1644      C1647   1.402       .  A
C1645      C1656   1.407       .  A
C1645      C1648   1.417       .  A
C1646      C1660   1.360       .  A
C1646      C1649   1.364       .  A
C1647      C1650   1.370       .  A
C1648      C1654   1.370       .  A
C1649      C1657   1.378       .  A
C1650      N1651   1.342       .  A
C1650      H1663   1.079       .  S
N1651      C1670   1.422       .  S
N1651      C1652   1.347       .  A
C1652      H1653   1.077       .  S
C1654      N1655   1.349       .  A
C1654      H1664   1.077       .  S
N1655      C1656   1.369       .  A
C1656      H1662   1.079       .  S
C1657      N1658   1.358       .  A
C1657      H1659   1.071       .  S
N1658      C1682   1.466       .  S
N1658      C1660   1.362       .  A
C1660      H1661   1.074       .  S
C1665      C1666   1.551       .  S
C1665      C1671   1.573       .  S
C1665      C1669   1.543       .  S
C1665      C1782   1.533       .  S
C1666      H1673   1.084       .  S
C1666      C1667   1.347       .  D
C1667      C1668   1.515       .  S
C1668      C1672   1.539       .  S
C1668      C1670   1.516       .  S
C1668      H1674   1.112       .  S
C1669      H1675   1.087       .  S
C1669      C1670   1.344       .  D
C1671      H1676   1.080   1_554  S
C1671      C1672   1.389       .  D
C1672      C1690   1.544       .  S
C1677      C1678   1.551       .  S
C1677      C1683   1.549       .  S
C1677      C1681   1.554       .  S
C1677      C1768   1.531       .  S
C1678      H1685   1.083       .  S
C1678      C1679   1.363       .  D
C1679      C1680   1.590       .  S
C1680      C1684   1.598       .  S
C1680      C1682   1.564       .  S
C1680      H1686   1.110       .  S
C1681      H1687   1.087       .  S
C1681      C1682   1.350       .  D
C1683      H1688   1.071       .  S
C1683      C1684   1.357       .  D
C1684      C1712   1.579       .  S
C1689      C1691   1.523       .  S
C1689      C1693   1.524       .  S
C1689      C1692   1.592       .  S
C1690      C1694   1.522       .  S
C1690      C1696   1.520       .  S
C1690      C1695   1.536       .  S
C1691      C1699   1.368       .  A
C1691      C1694   1.407       .  A
C1692      C2078   1.403   1_554  A
C1692      C1695   1.427       .  A
C1693      C1707   1.355       .  A
C1693      C1696   1.371       .  A
C1694      C1697   1.366       .  A
C1695      C2076   1.366   1_554  A
C1696      C1704   1.372       .  A
C1697      N1698   1.341       .  A
C1697      H1710   1.079       .  S
N1698      C1699   1.347       .  A
C1699      H1700   1.076       .  S
C1701      C2070   1.366       .  A
C1701      N1702   1.352       .  A
C1701      H1711   1.080       .  S
N1702      C1703   1.372       .  A
N1702      N1725   1.414       .  S
C1703      C2067   1.403       .  A
C1703      H1709   1.081       .  S
C1704      N1705   1.357       .  A
C1704      H1706   1.070       .  S
N1705      C1707   1.362       .  A
C1707      H1708   1.064       .  S
C1712      C1714   1.519       .  S
C1712      C1716   1.520       .  S
C1712      C1715   1.595       .  S
C1713      C1717   1.519       .  S
C1713      C1719   1.520       .  S
C1713      C1718   1.533       .  S
C1714      C1722   1.366       .  A
C1714      C1717   1.405       .  A
C1715      C1726   1.405       .  A
C1715      C1718   1.425       .  A
C1716      C1730   1.351       .  A
C1716      C1719   1.370       .  A
C1717      C1720   1.362       .  A
C1718      C1724   1.365       .  A
C1719      C1727   1.372       .  A
C1720      N1721   1.338       .  A
C1720      H1733   1.079       .  S
N1721      C1722   1.346       .  A
C1722      H1723   1.076       .  S
C1724      N1725   1.351       .  A
C1724      H1734   1.080       .  S
N1725      C1726   1.372       .  A
C1726      H1732   1.080       .  S
C1727      N1728   1.358       .  A
C1727      H1729   1.069       .  S
N1728      C1730   1.358       .  A
C1730      H1731   1.070       .  S
O1735     Co2880   2.048   1_545  S
O1736      C1744   1.245       .  A
O1736     Co2506   1.944   1_545  S
O1737      C1745   1.248       .  A
O1737     Co2507   2.013   1_545  S
O1738      C1746   1.297       .  A
O1738     Co2508   2.048   1_545  S
O1739     Co2506   1.983   1_545  S
O1740      C2121   1.285   1_565  A
O1740     Co2880   1.918   1_554  S
O1741      C1744   1.258   1_565  A
O1741     Co2508   2.013       .  S
O1742      C2493   1.282       .  A
O1742     Co1757   1.918       .  S
C1743      O2492   1.282   1_545  A
C1743      C2238   1.475       .  S
C1744      C1796   1.464       .  S
C1745      C1824   1.484       .  S
C1746      O2115   1.285   1_545  A
C1746      C2210   1.482       .  S
O1747      C2135   1.283       .  A
O1747     Co2130   2.050       .  S
O1748     Co1756   1.926       .  S
O1749      C1762   1.249       .  A
O1749     Co1757   1.936       .  S
O1750      C1763   1.271       .  A
O1750     Co1758   1.973       .  S
O1751      C1763   1.269       .  A
O1751     Co1756   1.998       .  S
O1752     Co2130   2.023       .  S
O1753      C1760   1.266       .  A
O1753     Co1758   1.930       .  S
O1754      C1761   1.288       .  A
O1754     Co1757   2.029       .  S
Co1755     O2860   2.048       .  S
Co1755     O2865   1.918       .  S
Co1755     O2122   2.050       .  S
Co1755     O2127   2.023       .  S
Co1755     O1759   2.080       .  S
Co1756     O2486   1.944       .  S
Co1756     O2489   1.983       .  S
Co1756     O1759   2.006       .  S
Co1757     O2487   2.013       .  S
Co1758     O2488   2.048       .  S
Co1758     O2491   2.013       .  S
Co1758     O1759   2.000       .  S
C1760      O2122   1.283       .  A
C1760      C2185   1.483       .  S
C1761      C1849   1.460       .  S
C1762      C2154   1.482       .  S
C1763      C1765   1.478       .  S
C1764      C1765   1.400       .  A
C1764      C1769   1.397       .  A
C1764      H1771   1.084       .  S
C1765      C1766   1.417       .  A
C1766      C1767   1.392       .  A
C1766      N1773   1.432       .  S
C1767      C1768   1.407       .  A
C1767      H1772   1.085       .  S
C1768      C1769   1.420       .  A
C1769      N1770   1.427       .  S
N1770      O1774   1.262       .  A
N1770      O1775   1.263       .  A
N1773      O1777   1.261       .  A
N1773      O1776   1.262       .  A
C1778      C1779   1.409       .  A
C1778      C1783   1.403       .  A
C1778      H1785   1.084       .  S
C1779      C1780   1.396   1_556  A
C1779      C2137   1.482       .  S
C1780      C1781   1.393       .  A
C1781      C1782   1.421       .  A
C1781      H1786   1.078       .  S
C1782      C1783   1.415   1_554  A
C1783      N1784   1.427       .  S
N1784      O1788   1.262       .  A
N1784      O1789   1.262       .  A
N1787      O1791   1.261       .  A
N1787      O2165   1.262       .  A
O1790      N2162   1.262       .  A
C1792      C1793   1.416       .  A
C1792      C1797   1.392       .  A
C1792      H1799   1.079       .  S
C1793      C1794   1.424       .  A
C1794      C1795   1.405   1_545  A
C1794      N1801   1.428   1_545  S
C1795      C1796   1.402   1_565  A
C1795      H2550   1.084       .  S
C1796      C1797   1.402       .  A
C1797      N1798   1.446       .  S
N1798      O1802   1.262       .  A
N1798      O1803   1.263       .  A
H1800      C2545   1.084       .  S
N1801      O1805   1.262       .  A
N1801      O2554   1.262       .  A
O1804      N2551   1.262       .  A
C1806      C1807   1.411       .  A
C1806      C1811   1.396       .  A
C1806      H1813   1.084       .  S
C1807      C1808   1.406       .  A
C1808      C1809   1.402       .  A
C1808      N1815   1.430       .  S
C1809      C1810   1.410       .  A
C1809      H1814   1.081       .  S
C1810      C1811   1.409       .  A
C1810      C2135   1.483   1_554  S
C1811      N1812   1.428       .  S
N1812      O2191   1.262   1_554  A
N1812      O2192   1.262       .  A
N1815      O1819   1.263       .  A
N1815      O1818   1.261       .  A
O1816      N2187   1.262       .  A
O1817      N2187   1.262       .  A
C1820      C1821   1.414       .  A
C1820      C1825   1.383       .  A
C1820      H1827   1.083       .  S
C1821      C1822   1.416       .  A
C1822      C1823   1.413       .  A
C1822      N1829   1.427       .  S
C1823      C1824   1.412       .  A
C1823      H1828   1.084       .  S
C1824      C1825   1.408       .  A
N1826      O1830   1.261       .  A
N1826      O1831   1.262       .  A
N1829      O1833   1.262       .  A
N1829      O1832   1.262       .  A
C1834      C1835   1.407   1_556  A
C1834      C1839   1.398   1_556  A
C1834      H2216   1.084       .  S
C1835      C1836   1.405       .  A
C1835      C2121   1.482       .  S
C1836      C1837   1.397       .  A
C1836      N2593   1.428       .  S
C1837      C1838   1.416       .  A
C1837      H1842   1.085       .  S
C1838      C1839   1.417       .  A
C1839      N1840   1.426   1_554  S
N1840      O1844   1.262       .  A
N1840      O1845   1.263       .  A
H1841      C2209   1.084       .  S
N1843      C2586   1.428       .  S
N1843      O1847   1.262       .  A
N1843      O1846   1.262       .  A
C1848      C1849   1.386       .  A
C1848      C1853   1.393       .  A
C1848      H1855   1.084       .  S
C1849      C1850   1.413       .  A
C1850      C1851   1.393       .  A
C1850      N1857   1.431       .  S
C1851      C1852   1.398       .  A
C1851      H1856   1.081       .  S
C1852      C1853   1.436       .  A
C1853      N1854   1.431       .  S
N1854      O1858   1.262       .  A
N1854      O1859   1.262       .  A
N1857      O1861   1.262       .  A
C1862      C1863   1.406       .  A
C1862      C1867   1.401       .  A
C1862      H2244   1.084       .  S
C1863      C1864   1.399       .  A
C1863      C2118   1.475   1_554  S
C1864      C1865   1.396       .  A
C1865      C1866   1.422       .  A
C1865      H1870   1.080       .  S
C1866      C1867   1.417       .  A
C1867      N1868   1.428       .  S
N1868      O2247   1.262       .  A
N1868      O1873   1.262       .  A
H1869      C2237   1.084       .  S
N1871      O1875   1.262       .  A
O1872      N2243   1.262       .  A
C1876      C1877   1.535       .  S
C1876      C1882   1.569       .  S
C1876      C1880   1.549       .  S
C1876      C2241   1.535       .  S
C1877      H1884   1.087       .  S
C1877      C1878   1.344       .  D
C1878      C1879   1.566       .  S
C1878      N2080   1.459       .  S
C1879      C1883   1.588       .  S
C1879      C1881   1.587       .  S
C1879      H1885   1.110       .  S
C1880      H1886   1.080       .  S
C1880      C1881   1.351       .  D
C1881      C1924   1.567       .  S
C1882      H1887   1.082       .  S
C1882      C1883   1.380       .  D
C1883      C1888   1.585       .  S
C1888      C1890   1.509       .  S
C1888      C1892   1.519       .  S
C1888      C1891   1.580       .  S
C1889      C1918   1.589       .  S
C1889      C1893   1.518       .  S
C1889      C1895   1.509       .  S
C1889      C1894   1.590       .  S
C1890      C1898   1.370       .  A
C1890      C1893   1.403       .  A
C1891      C1894   1.436       .  A
C1892      C1906   1.371       .  A
C1892      C1895   1.405       .  A
C1893      C1896   1.370       .  A
C1895      C1903   1.369       .  A
C1896      N1897   1.343       .  A
C1896      H1909   1.073       .  S
N1897      C2042   1.421       .  S
N1897      C1898   1.337       .  A
C1898      H1899   1.081       .  S
C1900      N1901   1.371       .  A
C1900      H1910   1.081       .  S
N1901      C1902   1.367       .  A
N1901      N1983   1.430       .  S
C1902      H1908   1.081       .  S
C1903      N1904   1.336       .  A
C1903      H1905   1.081       .  S
N1904      C1960   1.421       .  S
N1904      C1906   1.343       .  A
C1906      H1907   1.072       .  S
C1911      C1912   1.533       .  S
C1911      C1917   1.573       .  S
C1911      C1915   1.530       .  S
C1911      C2227   1.517       .  S
C1912      H1919   1.087       .  S
C1912      C1913   1.342       .  D
C1913      C1914   1.565       .  S
C1913      N2103   1.456       .  S
C1914      C1918   1.590       .  S
C1914      C1916   1.590       .  S
C1914      H1920   1.110       .  S
C1915      H1921   1.077       .  S
C1915      C1916   1.345       .  D
C1916      C2017   1.554       .  S
C1917      H1922   1.083       .  S
C1917      C1918   1.377       .  D
C1923      C2010   1.521       .  S
C1923      C1925   1.517       .  S
C1923      C1927   1.523       .  S
C1923      C1926   1.532       .  S
C1924      C1928   1.528       .  S
C1924      C1930   1.529       .  S
C1924      C1929   1.591       .  S
C1925      C1933   1.376       .  A
C1925      C1928   1.365       .  A
C1926      C1937   1.367       .  A
C1926      C1929   1.420       .  A
C1927      C1941   1.370       .  A
C1927      C1930   1.403       .  A
C1928      C1931   1.361       .  A
C1929      C1935   1.406       .  A
C1930      C1938   1.376       .  A
C1931      N1932   1.364       .  A
C1931      H1944   1.065       .  S
N1932      C1951   1.465       .  S
N1932      C1933   1.356       .  A
C1933      H1934   1.072       .  S
C1935      N2686   1.371   1_545  A
C1935      H2695   1.080       .  S
N1936      C2685   1.371       .  A
N1936      C2687   1.350       .  A
N1936      N2030   1.415       .  S
C1937      N2686   1.350   1_545  A
C1937      H2693   1.078   1_545  S
C1938      N1939   1.351       .  A
C1938      H1940   1.077       .  S
N1939      C1963   1.427       .  S
N1939      C1941   1.341       .  A
C1941      H1942   1.079       .  S
H1943      C2687   1.078       .  S
H1945      C2685   1.080       .  S
C1946      C1947   1.547       .  S
C1946      C1952   1.561       .  S
C1946      C1950   1.550       .  S
C1946      C2213   1.536       .  S
C1947      H1954   1.083       .  S
C1947      C1948   1.357       .  D
C1948      C1949   1.591       .  S
C1948      C1971   1.574       .  S
C1949      C1953   1.594       .  S
C1949      C1951   1.565       .  S
C1949      H1955   1.110       .  S
C1950      H1956   1.087       .  S
C1950      C1951   1.350       .  D
C1952      H1957   1.073       .  S
C1952      C1953   1.367       .  D
C1953      C2064   1.585       .  S
C1958      C1959   1.551       .  S
C1958      C1964   1.570       .  S
C1958      C1962   1.549       .  S
C1958      C2196   1.534       .  S
C1959      H1966   1.086       .  S
C1959      C1960   1.347       .  D
C1960      C1961   1.511       .  S
C1961      C1965   1.540       .  S
C1961      C1963   1.516       .  S
C1961      H1967   1.112       .  S
C1962      H1968   1.087       .  S
C1962      C1963   1.346       .  D
C1964      H1969   1.079       .  S
C1964      C1965   1.390       .  D
C1965      C2088   1.539       .  S
C1970      C2054   1.576       .  S
C1970      C1972   1.521       .  S
C1970      C1974   1.518       .  S
C1970      C1973   1.585       .  S
C1971      C1975   1.514       .  S
C1971      C1977   1.514       .  S
C1971      C1976   1.586       .  S
C1972      C1980   1.382       .  A
C1972      C1975   1.402       .  A
C1973      C1984   1.395       .  A
C1973      C1976   1.433       .  A
C1974      C1988   1.376       .  A
C1974      C1977   1.399       .  A
C1975      C1978   1.375       .  A
C1976      C1982   1.393       .  A
C1977      C1985   1.379       .  A
C1978      N1979   1.343       .  A
C1978      H1991   1.074       .  S
N1979      C2000   1.430       .  S
N1979      C1980   1.345       .  A
C1980      H1981   1.081       .  S
C1982      N1983   1.368       .  A
C1982      H1992   1.081       .  S
N1983      C1984   1.369       .  A
C1984      H1990   1.081       .  S
C1985      N1986   1.343       .  A
C1985      H1987   1.081       .  S
N1986      C2012   1.430       .  S
N1986      C1988   1.344       .  A
C1988      H1989   1.074       .  S
C1993      C1994   1.545       .  S
C1993      C1999   1.564       .  S
C1993      C1997   1.546       .  S
C1993      C2182   1.523       .  S
C1994      H2001   1.087       .  S
C1994      C1995   1.339       .  D
C1995      C1996   1.517       .  S
C1995      N2073   1.418       .  S
C1996      C2000   1.516       .  S
C1996      C1998   1.531       .  S
C1996      H2002   1.112       .  S
C1997      H2003   1.077       .  S
C1997      C1998   1.366       .  D
C1998      C2018   1.515       .  S
C1999      H2004   1.077       .  S
C1999      C2000   1.368       .  D
C2005      C2006   1.542       .  S
C2005      C2011   1.561       .  S
C2005      C2009   1.556       .  S
C2005      C2168   1.522       .  S
C2006      H2013   1.088       .  S
C2006      C2007   1.331       .  D
C2007      C2008   1.513       .  S
C2007      N2096   1.414       .  S
C2008      C2012   1.514       .  S
C2008      C2010   1.538       .  S
C2008      H2014   1.112       .  S
C2009      H2015   1.077       .  S
C2009      C2010   1.380       .  D
C2011      H2016   1.085       .  S
C2011      C2012   1.358       .  D
C2017      C2019   1.521       .  S
C2017      C2021   1.524       .  S
C2017      C2020   1.590       .  S
C2018      C2022   1.523       .  S
C2018      C2024   1.519       .  S
C2018      C2023   1.536       .  S
C2019      C2027   1.373       .  A
C2019      C2022   1.402       .  A
C2020      C2031   1.407       .  A
C2020      C2023   1.417       .  A
C2021      C2035   1.360       .  A
C2021      C2024   1.364       .  A
C2022      C2025   1.370       .  A
C2023      C2029   1.370       .  A
C2024      C2032   1.378       .  A
C2025      N2026   1.342       .  A
C2025      H2038   1.079       .  S
N2026      C2045   1.422       .  S
N2026      C2027   1.347       .  A
C2027      H2028   1.077       .  S
C2029      N2030   1.349       .  A
C2029      H2039   1.077       .  S
N2030      C2031   1.369       .  A
C2031      H2037   1.079       .  S
C2032      N2033   1.358       .  A
C2032      H2034   1.071       .  S
N2033      C2057   1.466       .  S
N2033      C2035   1.362       .  A
C2035      H2036   1.074       .  S
C2040      C2041   1.551       .  S
C2040      C2046   1.573       .  S
C2040      C2044   1.543       .  S
C2040      C2157   1.533       .  S
C2041      H2048   1.084       .  S
C2041      C2042   1.347       .  D
C2042      C2043   1.515       .  S
C2043      C2047   1.539       .  S
C2043      C2045   1.516       .  S
C2043      H2049   1.112       .  S
C2044      H2050   1.087       .  S
C2044      C2045   1.344       .  D
C2046      H2051   1.080       .  S
C2046      C2047   1.389       .  D
C2047      C2065   1.544       .  S
C2052      C2053   1.551       .  S
C2052      C2058   1.549       .  S
C2052      C2056   1.554       .  S
C2052      C2143   1.531       .  S
C2053      H2060   1.083       .  S
C2053      C2054   1.363       .  D
C2054      C2055   1.590       .  S
C2055      C2059   1.598       .  S
C2055      C2057   1.564       .  S
C2055      H2061   1.110       .  S
C2056      H2062   1.087       .  S
C2056      C2057   1.350       .  D
C2058      H2063   1.071       .  S
C2058      C2059   1.357       .  D
C2059      C2087   1.579       .  S
C2064      C2066   1.523       .  S
C2064      C2068   1.524       .  S
C2064      C2067   1.592       .  S
C2065      C2069   1.522       .  S
C2065      C2071   1.520       .  S
C2065      C2070   1.536       .  S
C2066      C2074   1.368       .  A
C2066      C2069   1.407       .  A
C2067      C2070   1.427       .  A
C2068      C2082   1.355       .  A
C2068      C2071   1.371       .  A
C2069      C2072   1.366       .  A
C2071      C2079   1.372       .  A
C2072      N2073   1.341       .  A
C2072      H2085   1.079       .  S
N2073      C2074   1.347       .  A
C2074      H2075   1.076       .  S
C2076      N2077   1.352       .  A
C2076      H2086   1.080       .  S
N2077      C2078   1.372       .  A
N2077      N2100   1.414       .  S
C2078      H2084   1.081       .  S
C2079      N2080   1.357       .  A
C2079      H2081   1.070       .  S
N2080      C2082   1.362       .  A
C2082      H2083   1.064       .  S
C2087      C2089   1.519       .  S
C2087      C2091   1.520       .  S
C2087      C2090   1.595       .  S
C2088      C2092   1.519       .  S
C2088      C2094   1.520       .  S
C2088      C2093   1.533       .  S
C2089      C2097   1.366       .  A
C2089      C2092   1.405       .  A
C2090      C2101   1.405       .  A
C2090      C2093   1.425       .  A
C2091      C2105   1.351       .  A
C2091      C2094   1.370       .  A
C2092      C2095   1.362       .  A
C2093      C2099   1.365       .  A
C2094      C2102   1.372       .  A
C2095      N2096   1.338       .  A
C2095      H2108   1.079       .  S
N2096      C2097   1.346       .  A
C2097      H2098   1.076       .  S
C2099      N2100   1.351       .  A
C2099      H2109   1.080       .  S
N2100      C2101   1.372       .  A
C2101      H2107   1.080       .  S
C2102      N2103   1.358       .  A
C2102      H2104   1.069       .  S
N2103      C2105   1.358       .  A
C2105      H2106   1.070       .  S
O2110     Co2505   2.048   1_545  S
O2111      C2119   1.245       .  A
O2111     Co2881   1.944   1_545  S
O2112      C2120   1.248       .  A
O2112     Co2882   2.013   1_545  S
O2113      C2121   1.297   1_556  A
O2113     Co2883   2.048   1_545  S
O2114     Co2881   1.983   1_545  S
O2115     Co2505   1.918       .  S
O2116      C2119   1.258   1_565  A
O2116     Co2883   2.013       .  S
O2117      C2868   1.282       .  A
O2117     Co2132   1.918       .  S
C2118      O2867   1.282   1_545  A
C2119      C2171   1.464       .  S
C2120      C2199   1.484       .  S
O2123     Co2131   1.926       .  S
O2124      C2137   1.249       .  A
O2124     Co2132   1.936       .  S
O2125      C2138   1.271       .  A
O2125     Co2133   1.973       .  S
O2126      C2138   1.269       .  A
O2126     Co2131   1.998       .  S
O2128      C2135   1.266       .  A
O2128     Co2133   1.930       .  S
O2129      C2136   1.288       .  A
O2129     Co2132   2.029       .  S
Co2130     O2485   2.048       .  S
Co2130     O2490   1.918   1_556  S
Co2130     O2134   2.080       .  S
Co2131     O2861   1.944       .  S
Co2131     O2864   1.983       .  S
Co2131     O2134   2.006       .  S
Co2132     O2862   2.013       .  S
Co2133     O2863   2.048       .  S
Co2133     O2866   2.013       .  S
Co2133     O2134   2.000       .  S
C2136      C2224   1.460       .  S
C2138      C2140   1.478       .  S
C2139      C2140   1.400       .  A
C2139      C2144   1.397       .  A
C2139      H2146   1.084       .  S
C2140      C2141   1.417       .  A
C2141      C2142   1.392       .  A
C2141      N2148   1.432       .  S
C2142      C2143   1.407       .  A
C2142      H2147   1.085       .  S
C2143      C2144   1.420       .  A
C2144      N2145   1.427       .  S
N2145      O2149   1.262       .  A
N2145      O2150   1.263       .  A
N2148      O2152   1.261       .  A
N2148      O2151   1.262       .  A
C2153      C2154   1.409       .  A
C2153      C2158   1.403       .  A
C2153      H2160   1.084       .  S
C2154      C2155   1.396       .  A
C2155      C2156   1.393       .  A
C2156      C2157   1.421       .  A
C2156      H2161   1.078       .  S
C2157      C2158   1.415       .  A
C2158      N2159   1.427       .  S
N2159      O2163   1.262       .  A
N2159      O2164   1.262       .  A
N2162      O2166   1.261       .  A
C2167      C2168   1.416       .  A
C2167      C2172   1.392       .  A
C2167      H2174   1.079       .  S
C2168      C2169   1.424       .  A
C2169      C2170   1.405   1_545  A
C2169      N2176   1.428   1_545  S
C2170      C2171   1.402   1_565  A
C2170      H2925   1.084       .  S
C2171      C2172   1.402       .  A
C2172      N2173   1.446       .  S
N2173      O2177   1.262       .  A
N2173      O2178   1.263       .  A
H2175      C2920   1.084       .  S
N2176      O2180   1.262       .  A
N2176      O2929   1.262       .  A
O2179      N2926   1.262       .  A
C2181      C2182   1.411       .  A
C2181      C2186   1.396       .  A
C2181      H2188   1.084       .  S
C2182      C2183   1.406       .  A
C2183      C2184   1.402       .  A
C2183      N2190   1.430       .  S
C2184      C2185   1.410       .  A
C2184      H2189   1.081       .  S
C2185      C2186   1.409       .  A
C2186      N2187   1.428       .  S
N2190      O2194   1.263       .  A
N2190      O2193   1.261       .  A
C2195      C2196   1.414       .  A
C2195      C2200   1.383       .  A
C2195      H2202   1.083       .  S
C2196      C2197   1.416       .  A
C2197      C2198   1.413       .  A
C2197      N2204   1.427       .  S
C2198      C2199   1.412       .  A
C2198      H2203   1.084       .  S
C2199      C2200   1.408       .  A
N2201      O2205   1.261       .  A
N2201      O2206   1.262       .  A
N2204      O2208   1.262       .  A
N2204      O2207   1.262       .  A
C2209      C2210   1.407       .  A
C2209      C2214   1.398       .  A
C2210      C2211   1.405       .  A
C2211      C2212   1.397       .  A
C2211      N2968   1.428       .  S
C2212      C2213   1.416       .  A
C2212      H2217   1.085       .  S
C2213      C2214   1.417       .  A
C2214      N2215   1.426       .  S
N2215      O2219   1.262       .  A
N2215      O2220   1.263       .  A
N2218      C2961   1.428       .  S
N2218      O2222   1.262       .  A
N2218      O2221   1.262       .  A
C2223      C2224   1.386       .  A
C2223      C2228   1.393       .  A
C2223      H2230   1.084       .  S
C2224      C2225   1.413       .  A
C2225      C2226   1.393       .  A
C2225      N2232   1.431       .  S
C2226      C2227   1.398       .  A
C2226      H2231   1.081       .  S
C2227      C2228   1.436       .  A
C2228      N2229   1.431       .  S
N2229      O2233   1.262       .  A
N2229      O2234   1.262       .  A
N2232      O2236   1.262       .  A
C2237      C2238   1.406       .  A
C2237      C2242   1.401       .  A
C2238      C2239   1.399       .  A
C2239      C2240   1.396       .  A
C2240      C2241   1.422       .  A
C2240      H2245   1.080       .  S
C2241      C2242   1.417       .  A
C2242      N2243   1.428       .  S
N2243      O2248   1.262       .  A
N2246      O2250   1.262       .  A
C2251      C2252   1.535       .  S
C2251      C2257   1.569       .  S
C2251      C2255   1.549       .  S
C2251      C2616   1.535       .  S
C2252      H2259   1.087       .  S
C2252      C2253   1.344       .  D
C2253      C2254   1.566       .  S
C2253      N2455   1.459       .  S
C2254      C2258   1.588       .  S
C2254      C2256   1.587       .  S
C2254      H2260   1.110       .  S
C2255      H2261   1.080       .  S
C2255      C2256   1.351       .  D
C2256      C2299   1.567       .  S
C2257      H2262   1.082       .  S
C2257      C2258   1.380       .  D
C2258      C2263   1.585       .  S
C2263      C2265   1.509       .  S
C2263      C2267   1.519       .  S
C2263      C2266   1.580       .  S
C2264      C2293   1.589       .  S
C2264      C2268   1.518       .  S
C2264      C2270   1.509       .  S
C2264      C2269   1.590       .  S
C2265      C2273   1.370       .  A
C2265      C2268   1.403       .  A
C2266      C2269   1.436       .  A
C2267      C2281   1.371       .  A
C2267      C2270   1.405       .  A
C2268      C2271   1.370       .  A
C2270      C2278   1.369       .  A
C2271      N2272   1.343       .  A
C2271      H2284   1.073       .  S
N2272      C2417   1.421       .  S
N2272      C2273   1.337       .  A
C2273      H2274   1.081       .  S
C2275      N2276   1.371       .  A
C2275      H2285   1.081       .  S
N2276      C2277   1.367       .  A
N2276      N2358   1.430       .  S
C2277      H2283   1.081       .  S
C2278      N2279   1.336       .  A
C2278      H2280   1.081       .  S
N2279      C2335   1.421       .  S
N2279      C2281   1.343       .  A
C2281      H2282   1.072       .  S
C2286      C2287   1.533       .  S
C2286      C2292   1.573       .  S
C2286      C2290   1.530       .  S
C2286      C2602   1.517       .  S
C2287      H2294   1.087       .  S
C2287      C2288   1.342       .  D
C2288      C2289   1.565       .  S
C2288      N2478   1.456       .  S
C2289      C2293   1.590       .  S
C2289      C2291   1.590       .  S
C2289      H2295   1.110       .  S
C2290      H2296   1.077       .  S
C2290      C2291   1.345       .  D
C2291      C2392   1.554       .  S
C2292      H2297   1.083       .  S
C2292      C2293   1.377       .  D
C2298      C2385   1.521       .  S
C2298      C2300   1.517       .  S
C2298      C2302   1.523       .  S
C2298      C2301   1.532       .  S
C2299      C2303   1.528       .  S
C2299      C2305   1.529       .  S
C2299      C2304   1.591       .  S
C2300      C2308   1.376       .  A
C2300      C2303   1.365       .  A
C2301      C2312   1.367       .  A
C2301      C2304   1.420       .  A
C2302      C2316   1.370       .  A
C2302      C2305   1.403       .  A
C2303      C2306   1.361       .  A
C2304      C2310   1.406       .  A
C2305      C2313   1.376       .  A
C2306      N2307   1.364       .  A
C2306      H2319   1.065       .  S
N2307      C2326   1.465       .  S
N2307      C2308   1.356       .  A
C2308      H2309   1.072       .  S
N2311      N2405   1.415       .  S
C2313      N2314   1.351       .  A
C2313      H2315   1.077       .  S
N2314      C2338   1.427       .  S
N2314      C2316   1.341       .  A
C2316      H2317   1.079       .  S
C2321      C2322   1.547       .  S
C2321      C2327   1.561       .  S
C2321      C2325   1.550       .  S
C2321      C2588   1.536       .  S
C2322      H2329   1.083       .  S
C2322      C2323   1.357       .  D
C2323      C2324   1.591       .  S
C2323      C2346   1.574       .  S
C2324      C2328   1.594       .  S
C2324      C2326   1.565       .  S
C2324      H2330   1.110       .  S
C2325      H2331   1.087       .  S
C2325      C2326   1.350       .  D
C2327      H2332   1.073       .  S
C2327      C2328   1.367       .  D
C2328      C2439   1.585       .  S
C2333      C2334   1.551       .  S
C2333      C2339   1.570       .  S
C2333      C2337   1.549       .  S
C2333      C2571   1.534       .  S
C2334      H2341   1.086       .  S
C2334      C2335   1.347       .  D
C2335      C2336   1.511       .  S
C2336      C2340   1.540       .  S
C2336      C2338   1.516       .  S
C2336      H2342   1.112       .  S
C2337      H2343   1.087       .  S
C2337      C2338   1.345       .  D
C2339      H2344   1.079       .  S
C2339      C2340   1.390       .  D
C2340      C2463   1.539       .  S
C2345      C2429   1.576       .  S
C2345      C2347   1.521       .  S
C2345      C2349   1.518       .  S
C2345      C2348   1.585       .  S
C2346      C2350   1.514       .  S
C2346      C2352   1.514       .  S
C2346      C2351   1.586       .  S
C2347      C2355   1.382       .  A
C2347      C2350   1.402       .  A
C2348      C2359   1.395       .  A
C2348      C2351   1.433       .  A
C2349      C2363   1.376       .  A
C2349      C2352   1.399       .  A
C2350      C2353   1.375       .  A
C2351      C2357   1.393       .  A
C2352      C2360   1.379       .  A
C2353      N2354   1.343       .  A
C2353      H2366   1.074       .  S
N2354      C2375   1.430       .  S
N2354      C2355   1.345       .  A
C2355      H2356   1.081       .  S
C2357      N2358   1.368       .  A
C2357      H2367   1.081       .  S
N2358      C2359   1.369       .  A
C2359      H2365   1.081       .  S
C2360      N2361   1.343       .  A
C2360      H2362   1.081       .  S
N2361      C2387   1.430       .  S
N2361      C2363   1.344       .  A
C2363      H2364   1.074       .  S
C2368      C2369   1.545       .  S
C2368      C2374   1.564       .  S
C2368      C2372   1.546       .  S
C2368      C2557   1.523       .  S
C2369      H2376   1.087       .  S
C2369      C2370   1.339       .  D
C2370      C2371   1.517       .  S
C2370      N2448   1.418       .  S
C2371      C2375   1.516       .  S
C2371      C2373   1.531       .  S
C2371      H2377   1.112       .  S
C2372      H2378   1.077       .  S
C2372      C2373   1.366       .  D
C2373      C2393   1.515       .  S
C2374      H2379   1.077       .  S
C2374      C2375   1.368       .  D
C2380      C2381   1.542       .  S
C2380      C2386   1.561       .  S
C2380      C2384   1.556       .  S
C2380      C2543   1.522       .  S
C2381      H2388   1.088       .  S
C2381      C2382   1.331       .  D
C2382      C2383   1.513       .  S
C2382      N2471   1.414       .  S
C2383      C2387   1.515       .  S
C2383      C2385   1.538       .  S
C2383      H2389   1.112       .  S
C2384      H2390   1.077       .  S
C2384      C2385   1.380       .  D
C2386      H2391   1.085       .  S
C2386      C2387   1.358       .  D
C2392      C2394   1.521       .  S
C2392      C2396   1.524       .  S
C2392      C2395   1.590       .  S
C2393      C2397   1.523       .  S
C2393      C2399   1.519       .  S
C2393      C2398   1.536       .  S
C2394      C2402   1.372       .  A
C2394      C2397   1.402       .  A
C2395      C2406   1.407       .  A
C2395      C2398   1.417       .  A
C2396      C2410   1.360       .  A
C2396      C2399   1.364       .  A
C2397      C2400   1.370       .  A
C2398      C2404   1.370       .  A
C2399      C2407   1.378       .  A
C2400      N2401   1.342       .  A
C2400      H2413   1.079       .  S
N2401      C2420   1.422       .  S
N2401      C2402   1.347       .  A
C2402      H2403   1.077       .  S
C2404      N2405   1.349       .  A
C2404      H2414   1.077       .  S
N2405      C2406   1.369       .  A
C2406      H2412   1.079       .  S
C2407      N2408   1.358       .  A
C2407      H2409   1.071       .  S
N2408      C2432   1.466       .  S
N2408      C2410   1.362       .  A
C2410      H2411   1.074       .  S
C2415      C2416   1.551       .  S
C2415      C2421   1.573       .  S
C2415      C2419   1.543       .  S
C2415      C2532   1.533       .  S
C2416      H2423   1.084       .  S
C2416      C2417   1.347       .  D
C2417      C2418   1.515       .  S
C2418      C2422   1.539       .  S
C2418      C2420   1.516       .  S
C2418      H2424   1.112       .  S
C2419      H2425   1.087       .  S
C2419      C2420   1.344       .  D
C2421      H2426   1.080   1_554  S
C2421      C2422   1.389       .  D
C2422      C2440   1.544       .  S
C2427      C2428   1.551       .  S
C2427      C2433   1.549       .  S
C2427      C2431   1.554       .  S
C2427      C2518   1.531       .  S
C2428      H2435   1.083       .  S
C2428      C2429   1.363       .  D
C2429      C2430   1.590       .  S
C2430      C2434   1.598       .  S
C2430      C2432   1.564       .  S
C2430      H2436   1.110       .  S
C2431      H2437   1.087       .  S
C2431      C2432   1.350       .  D
C2433      H2438   1.071       .  S
C2433      C2434   1.357       .  D
C2434      C2462   1.579       .  S
C2439      C2441   1.523       .  S
C2439      C2443   1.524       .  S
C2439      C2442   1.592       .  S
C2440      C2444   1.522       .  S
C2440      C2446   1.520       .  S
C2440      C2445   1.536       .  S
C2441      C2449   1.368       .  A
C2441      C2444   1.407       .  A
C2442      C2828   1.403   1_554  A
C2442      C2445   1.427       .  A
C2443      C2457   1.355       .  A
C2443      C2446   1.371       .  A
C2444      C2447   1.366       .  A
C2445      C2826   1.366   1_554  A
C2446      C2454   1.372       .  A
C2447      N2448   1.341       .  A
C2447      H2460   1.079       .  S
N2448      C2449   1.347       .  A
C2449      H2450   1.076       .  S
C2451      C2820   1.366       .  A
C2451      N2452   1.352       .  A
C2451      H2461   1.080       .  S
N2452      C2453   1.372       .  A
N2452      N2475   1.414       .  S
C2453      C2817   1.403       .  A
C2453      H2459   1.081       .  S
C2454      N2455   1.357       .  A
C2454      H2456   1.070       .  S
N2455      C2457   1.362       .  A
C2457      H2458   1.064       .  S
C2462      C2464   1.519       .  S
C2462      C2466   1.520       .  S
C2462      C2465   1.595       .  S
C2463      C2467   1.519       .  S
C2463      C2469   1.520       .  S
C2463      C2468   1.533       .  S
C2464      C2472   1.366       .  A
C2464      C2467   1.405       .  A
C2465      C2476   1.405       .  A
C2465      C2468   1.425       .  A
C2466      C2480   1.351       .  A
C2466      C2469   1.370       .  A
C2467      C2470   1.362       .  A
C2468      C2474   1.365       .  A
C2469      C2477   1.372       .  A
C2470      N2471   1.338       .  A
C2470      H2483   1.079       .  S
N2471      C2472   1.346       .  A
C2472      H2473   1.076       .  S
C2474      N2475   1.351       .  A
C2474      H2484   1.080       .  S
N2475      C2476   1.372       .  A
C2476      H2482   1.080       .  S
C2477      N2478   1.358       .  A
C2477      H2479   1.069       .  S
N2478      C2480   1.358       .  A
C2480      H2481   1.071       .  S
O2486      C2494   1.245       .  A
O2487      C2495   1.248       .  A
O2488      C2496   1.297       .  A
O2490      C2871   1.285       .  A
O2491      C2494   1.258       .  A
O2492     Co2507   1.918       .  S
C2493      C2988   1.475       .  S
C2494      C2546   1.464       .  S
C2495      C2574   1.484       .  S
C2496      O2865   1.285       .  A
C2496      C2960   1.482       .  S
O2497      C2885   1.283       .  A
O2497     Co2880   2.050       .  S
O2498     Co2506   1.926       .  S
O2499      C2512   1.249       .  A
O2499     Co2507   1.936       .  S
O2500      C2513   1.271       .  A
O2500     Co2508   1.973       .  S
O2501      C2513   1.269       .  A
O2501     Co2506   1.998       .  S
O2502     Co2880   2.023       .  S
O2503      C2510   1.266       .  A
O2503     Co2508   1.930       .  S
O2504      C2511   1.288       .  A
O2504     Co2507   2.029       .  S
Co2505     O2872   2.050       .  S
Co2505     O2877   2.023       .  S
Co2505     O2509   2.080       .  S
Co2506     O2509   2.006       .  S
Co2508     O2509   2.000       .  S
C2510      O2872   1.283       .  A
C2510      C2935   1.483       .  S
C2511      C2599   1.460       .  S
C2512      C2904   1.482       .  S
C2513      C2515   1.478       .  S
C2514      C2515   1.400       .  A
C2514      C2519   1.397       .  A
C2514      H2521   1.084       .  S
C2515      C2516   1.417       .  A
C2516      C2517   1.392       .  A
C2516      N2523   1.432       .  S
C2517      C2518   1.407       .  A
C2517      H2522   1.085       .  S
C2518      C2519   1.420       .  A
C2519      N2520   1.427       .  S
N2520      O2524   1.262       .  A
N2520      O2525   1.263       .  A
N2523      O2527   1.261       .  A
N2523      O2526   1.262       .  A
C2528      C2529   1.409       .  A
C2528      C2533   1.403       .  A
C2528      H2535   1.084       .  S
C2529      C2530   1.396   1_556  A
C2529      C2887   1.482       .  S
C2530      C2531   1.393       .  A
C2531      C2532   1.421       .  A
C2531      H2536   1.078       .  S
C2532      C2533   1.415   1_554  A
C2533      N2534   1.427       .  S
N2534      O2538   1.262       .  A
N2534      O2539   1.262       .  A
N2537      O2541   1.261       .  A
N2537      O2915   1.262       .  A
O2540      N2912   1.262       .  A
C2542      C2543   1.416       .  A
C2542      C2547   1.392       .  A
C2542      H2549   1.079       .  S
C2543      C2544   1.424       .  A
C2544      C2545   1.405       .  A
C2544      N2551   1.428       .  S
C2545      C2546   1.402       .  A
C2546      C2547   1.402       .  A
C2547      N2548   1.446       .  S
N2548      O2552   1.262       .  A
N2548      O2553   1.263       .  A
N2551      O2555   1.262       .  A
C2556      C2557   1.411       .  A
C2556      C2561   1.396       .  A
C2556      H2563   1.084       .  S
C2557      C2558   1.406       .  A
C2558      C2559   1.402       .  A
C2558      N2565   1.430       .  S
C2559      C2560   1.410       .  A
C2559      H2564   1.081       .  S
C2560      C2561   1.409       .  A
C2560      C2885   1.483   1_554  S
C2561      N2562   1.428       .  S
N2562      O2941   1.262   1_554  A
N2562      O2942   1.262       .  A
N2565      O2569   1.263       .  A
N2565      O2568   1.261       .  A
O2566      N2937   1.262       .  A
O2567      N2937   1.262       .  A
C2570      C2571   1.414       .  A
C2570      C2575   1.383       .  A
C2570      H2577   1.083       .  S
C2571      C2572   1.416       .  A
C2572      C2573   1.413       .  A
C2572      N2579   1.427       .  S
C2573      C2574   1.412       .  A
C2573      H2578   1.084       .  S
C2574      C2575   1.408       .  A
N2576      O2580   1.261       .  A
N2576      O2581   1.262       .  A
N2579      O2583   1.262       .  A
N2579      O2582   1.262       .  A
C2584      C2585   1.407   1_556  A
C2584      C2589   1.398   1_556  A
C2584      H2966   1.084       .  S
C2585      C2586   1.405       .  A
C2585      C2871   1.482       .  S
C2586      C2587   1.397       .  A
C2587      C2588   1.416       .  A
C2587      H2592   1.085       .  S
C2588      C2589   1.417       .  A
C2589      N2590   1.426   1_554  S
N2590      O2594   1.262       .  A
N2590      O2595   1.263       .  A
H2591      C2959   1.084       .  S
N2593      O2597   1.262       .  A
N2593      O2596   1.262       .  A
C2598      C2599   1.386       .  A
C2598      C2603   1.393       .  A
C2598      H2605   1.084       .  S
C2599      C2600   1.413       .  A
C2600      C2601   1.393       .  A
C2600      N2607   1.431       .  S
C2601      C2602   1.398       .  A
C2601      H2606   1.081       .  S
C2602      C2603   1.436       .  A
C2603      N2604   1.431       .  S
N2604      O2608   1.262       .  A
N2604      O2609   1.262       .  A
N2607      O2611   1.262       .  A
C2612      C2613   1.406       .  A
C2612      C2617   1.401       .  A
C2612      H2994   1.084       .  S
C2613      C2614   1.399       .  A
C2613      C2868   1.475   1_554  S
C2614      C2615   1.396       .  A
C2615      C2616   1.422       .  A
C2615      H2620   1.080       .  S
C2616      C2617   1.417       .  A
C2617      N2618   1.428       .  S
N2618      O2997   1.262       .  A
N2618      O2623   1.262       .  A
H2619      C2987   1.084       .  S
N2621      O2625   1.262       .  A
O2622      N2993   1.262       .  A
C2626      C2627   1.535       .  S
C2626      C2632   1.569       .  S
C2626      C2630   1.549       .  S
C2626      C2991   1.535       .  S
C2627      H2634   1.087       .  S
C2627      C2628   1.344       .  D
C2628      C2629   1.566       .  S
C2628      N2830   1.459       .  S
C2629      C2633   1.588       .  S
C2629      C2631   1.587       .  S
C2629      H2635   1.110       .  S
C2630      H2636   1.080       .  S
C2630      C2631   1.351       .  D
C2631      C2674   1.567       .  S
C2632      H2637   1.082       .  S
C2632      C2633   1.380       .  D
C2633      C2638   1.585       .  S
C2638      C2640   1.509       .  S
C2638      C2642   1.519       .  S
C2638      C2641   1.580       .  S
C2639      C2668   1.589       .  S
C2639      C2643   1.518       .  S
C2639      C2645   1.509       .  S
C2639      C2644   1.590       .  S
C2640      C2648   1.370       .  A
C2640      C2643   1.403       .  A
C2641      C2644   1.436       .  A
C2642      C2656   1.371       .  A
C2642      C2645   1.405       .  A
C2643      C2646   1.370       .  A
C2645      C2653   1.369       .  A
C2646      N2647   1.343       .  A
C2646      H2659   1.073       .  S
N2647      C2792   1.421       .  S
N2647      C2648   1.337       .  A
C2648      H2649   1.081       .  S
C2650      N2651   1.371       .  A
C2650      H2660   1.081       .  S
N2651      C2652   1.367       .  A
N2651      N2733   1.430       .  S
C2652      H2658   1.081       .  S
C2653      N2654   1.336       .  A
C2653      H2655   1.081       .  S
N2654      C2710   1.421       .  S
N2654      C2656   1.343       .  A
C2656      H2657   1.072       .  S
C2661      C2662   1.533       .  S
C2661      C2667   1.573       .  S
C2661      C2665   1.530       .  S
C2661      C2977   1.517       .  S
C2662      H2669   1.087       .  S
C2662      C2663   1.342       .  D
C2663      C2664   1.565       .  S
C2663      N2853   1.456       .  S
C2664      C2668   1.590       .  S
C2664      C2666   1.590       .  S
C2664      H2670   1.110       .  S
C2665      H2671   1.077       .  S
C2665      C2666   1.345       .  D
C2666      C2767   1.554       .  S
C2667      H2672   1.083       .  S
C2667      C2668   1.377       .  D
C2673      C2760   1.521       .  S
C2673      C2675   1.517       .  S
C2673      C2677   1.523       .  S
C2673      C2676   1.532       .  S
C2674      C2678   1.528       .  S
C2674      C2680   1.529       .  S
C2674      C2679   1.591       .  S
C2675      C2683   1.376       .  A
C2675      C2678   1.365       .  A
C2676      C2687   1.367       .  A
C2676      C2679   1.420       .  A
C2677      C2691   1.370       .  A
C2677      C2680   1.403       .  A
C2678      C2681   1.361       .  A
C2679      C2685   1.406       .  A
C2680      C2688   1.376       .  A
C2681      N2682   1.364       .  A
C2681      H2694   1.065       .  S
N2682      C2701   1.465       .  S
N2682      C2683   1.356       .  A
C2683      H2684   1.072       .  S
N2686      N2780   1.415       .  S
C2688      N2689   1.351       .  A
C2688      H2690   1.077       .  S
N2689      C2713   1.427       .  S
N2689      C2691   1.341       .  A
C2691      H2692   1.079       .  S
C2696      C2697   1.547       .  S
C2696      C2702   1.561       .  S
C2696      C2700   1.550       .  S
C2696      C2963   1.536       .  S
C2697      H2704   1.083       .  S
C2697      C2698   1.357       .  D
C2698      C2699   1.591       .  S
C2698      C2721   1.574       .  S
C2699      C2703   1.594       .  S
C2699      C2701   1.565       .  S
C2699      H2705   1.110       .  S
C2700      H2706   1.087       .  S
C2700      C2701   1.350       .  D
C2702      H2707   1.073       .  S
C2702      C2703   1.367       .  D
C2703      C2814   1.585       .  S
C2708      C2709   1.551       .  S
C2708      C2714   1.570       .  S
C2708      C2712   1.549       .  S
C2708      C2946   1.534       .  S
C2709      H2716   1.086       .  S
C2709      C2710   1.347       .  D
C2710      C2711   1.511       .  S
C2711      C2715   1.540       .  S
C2711      C2713   1.516       .  S
C2711      H2717   1.112       .  S
C2712      H2718   1.087       .  S
C2712      C2713   1.346       .  D
C2714      H2719   1.079       .  S
C2714      C2715   1.390       .  D
C2715      C2838   1.539       .  S
C2720      C2804   1.576       .  S
C2720      C2722   1.521       .  S
C2720      C2724   1.518       .  S
C2720      C2723   1.585       .  S
C2721      C2725   1.514       .  S
C2721      C2727   1.514       .  S
C2721      C2726   1.586       .  S
C2722      C2730   1.382       .  A
C2722      C2725   1.402       .  A
C2723      C2734   1.395       .  A
C2723      C2726   1.433       .  A
C2724      C2738   1.376       .  A
C2724      C2727   1.399       .  A
C2725      C2728   1.375       .  A
C2726      C2732   1.393       .  A
C2727      C2735   1.379       .  A
C2728      N2729   1.343       .  A
C2728      H2741   1.074       .  S
N2729      C2750   1.430       .  S
N2729      C2730   1.345       .  A
C2730      H2731   1.081       .  S
C2732      N2733   1.368       .  A
C2732      H2742   1.081       .  S
N2733      C2734   1.369       .  A
C2734      H2740   1.081       .  S
C2735      N2736   1.343       .  A
C2735      H2737   1.081       .  S
N2736      C2762   1.430       .  S
N2736      C2738   1.344       .  A
C2738      H2739   1.074       .  S
C2743      C2744   1.545       .  S
C2743      C2749   1.564       .  S
C2743      C2747   1.546       .  S
C2743      C2932   1.523       .  S
C2744      H2751   1.087       .  S
C2744      C2745   1.339       .  D
C2745      C2746   1.517       .  S
C2745      N2823   1.418       .  S
C2746      C2750   1.516       .  S
C2746      C2748   1.531       .  S
C2746      H2752   1.112       .  S
C2747      H2753   1.077       .  S
C2747      C2748   1.366       .  D
C2748      C2768   1.515       .  S
C2749      H2754   1.077       .  S
C2749      C2750   1.368       .  D
C2755      C2756   1.542       .  S
C2755      C2761   1.561       .  S
C2755      C2759   1.556       .  S
C2755      C2918   1.522       .  S
C2756      H2763   1.088       .  S
C2756      C2757   1.331       .  D
C2757      C2758   1.513       .  S
C2757      N2846   1.414       .  S
C2758      C2762   1.515       .  S
C2758      C2760   1.538       .  S
C2758      H2764   1.112       .  S
C2759      H2765   1.077       .  S
C2759      C2760   1.380       .  D
C2761      H2766   1.085       .  S
C2761      C2762   1.358       .  D
C2767      C2769   1.521       .  S
C2767      C2771   1.524       .  S
C2767      C2770   1.590       .  S
C2768      C2772   1.523       .  S
C2768      C2774   1.519       .  S
C2768      C2773   1.536       .  S
C2769      C2777   1.373       .  A
C2769      C2772   1.402       .  A
C2770      C2781   1.407       .  A
C2770      C2773   1.417       .  A
C2771      C2785   1.360       .  A
C2771      C2774   1.364       .  A
C2772      C2775   1.370       .  A
C2773      C2779   1.370       .  A
C2774      C2782   1.378       .  A
C2775      N2776   1.342       .  A
C2775      H2788   1.079       .  S
N2776      C2795   1.422       .  S
N2776      C2777   1.347       .  A
C2777      H2778   1.077       .  S
C2779      N2780   1.349       .  A
C2779      H2789   1.077       .  S
N2780      C2781   1.369       .  A
C2781      H2787   1.079       .  S
C2782      N2783   1.358       .  A
C2782      H2784   1.071       .  S
N2783      C2807   1.466       .  S
N2783      C2785   1.362       .  A
C2785      H2786   1.074       .  S
C2790      C2791   1.551       .  S
C2790      C2796   1.573       .  S
C2790      C2794   1.543       .  S
C2790      C2907   1.533       .  S
C2791      H2798   1.084       .  S
C2791      C2792   1.347       .  D
C2792      C2793   1.515       .  S
C2793      C2797   1.539       .  S
C2793      C2795   1.516       .  S
C2793      H2799   1.112       .  S
C2794      H2800   1.087       .  S
C2794      C2795   1.344       .  D
C2796      H2801   1.080       .  S
C2796      C2797   1.389       .  D
C2797      C2815   1.544       .  S
C2802      C2803   1.551       .  S
C2802      C2808   1.549       .  S
C2802      C2806   1.554       .  S
C2802      C2893   1.531       .  S
C2803      H2810   1.083       .  S
C2803      C2804   1.363       .  D
C2804      C2805   1.590       .  S
C2805      C2809   1.598       .  S
C2805      C2807   1.564       .  S
C2805      H2811   1.110       .  S
C2806      H2812   1.087       .  S
C2806      C2807   1.350       .  D
C2808      H2813   1.071       .  S
C2808      C2809   1.357       .  D
C2809      C2837   1.579       .  S
C2814      C2816   1.523       .  S
C2814      C2818   1.524       .  S
C2814      C2817   1.592       .  S
C2815      C2819   1.522       .  S
C2815      C2821   1.520       .  S
C2815      C2820   1.536       .  S
C2816      C2824   1.368       .  A
C2816      C2819   1.407       .  A
C2817      C2820   1.427       .  A
C2818      C2832   1.355       .  A
C2818      C2821   1.371       .  A
C2819      C2822   1.366       .  A
C2821      C2829   1.372       .  A
C2822      N2823   1.341       .  A
C2822      H2835   1.079       .  S
N2823      C2824   1.347       .  A
C2824      H2825   1.076       .  S
C2826      N2827   1.352       .  A
C2826      H2836   1.080       .  S
N2827      C2828   1.372       .  A
N2827      N2850   1.414       .  S
C2828      H2834   1.081       .  S
C2829      N2830   1.357       .  A
C2829      H2831   1.070       .  S
N2830      C2832   1.362       .  A
C2832      H2833   1.064       .  S
C2837      C2839   1.519       .  S
C2837      C2841   1.520       .  S
C2837      C2840   1.595       .  S
C2838      C2842   1.519       .  S
C2838      C2844   1.520       .  S
C2838      C2843   1.533       .  S
C2839      C2847   1.366       .  A
C2839      C2842   1.405       .  A
C2840      C2851   1.405       .  A
C2840      C2843   1.425       .  A
C2841      C2855   1.351       .  A
C2841      C2844   1.370       .  A
C2842      C2845   1.362       .  A
C2843      C2849   1.365       .  A
C2844      C2852   1.372       .  A
C2845      N2846   1.338       .  A
C2845      H2858   1.079       .  S
N2846      C2847   1.346       .  A
C2847      H2848   1.076       .  S
C2849      N2850   1.351       .  A
C2849      H2859   1.080       .  S
N2850      C2851   1.372       .  A
C2851      H2857   1.080       .  S
C2852      N2853   1.358       .  A
C2852      H2854   1.069       .  S
N2853      C2855   1.358       .  A
C2855      H2856   1.070       .  S
O2861      C2869   1.245       .  A
O2862      C2870   1.248       .  A
O2863      C2871   1.297   1_556  A
O2866      C2869   1.258       .  A
O2867     Co2882   1.918       .  S
C2869      C2921   1.464       .  S
C2870      C2949   1.484       .  S
O2873     Co2881   1.926       .  S
O2874      C2887   1.249       .  A
O2874     Co2882   1.936       .  S
O2875      C2888   1.271       .  A
O2875     Co2883   1.973       .  S
O2876      C2888   1.269       .  A
O2876     Co2881   1.998       .  S
O2878      C2885   1.266       .  A
O2878     Co2883   1.930       .  S
O2879      C2886   1.288       .  A
O2879     Co2882   2.029       .  S
Co2880     O2884   2.080       .  S
Co2881     O2884   2.006       .  S
Co2883     O2884   2.000       .  S
C2886      C2974   1.460       .  S
C2888      C2890   1.478       .  S
C2889      C2890   1.400       .  A
C2889      C2894   1.397       .  A
C2889      H2896   1.084       .  S
C2890      C2891   1.417       .  A
C2891      C2892   1.392       .  A
C2891      N2898   1.432       .  S
C2892      C2893   1.407       .  A
C2892      H2897   1.085       .  S
C2893      C2894   1.420       .  A
C2894      N2895   1.427       .  S
N2895      O2899   1.262       .  A
N2895      O2900   1.263       .  A
N2898      O2902   1.261       .  A
N2898      O2901   1.262       .  A
C2903      C2904   1.409       .  A
C2903      C2908   1.403       .  A
C2903      H2910   1.084       .  S
C2904      C2905   1.396       .  A
C2905      C2906   1.393       .  A
C2906      C2907   1.421       .  A
C2906      H2911   1.078       .  S
C2907      C2908   1.415       .  A
C2908      N2909   1.427       .  S
N2909      O2913   1.262       .  A
N2909      O2914   1.262       .  A
N2912      O2916   1.261       .  A
C2917      C2918   1.416       .  A
C2917      C2922   1.392       .  A
C2917      H2924   1.079       .  S
C2918      C2919   1.424       .  A
C2919      C2920   1.405       .  A
C2919      N2926   1.428       .  S
C2920      C2921   1.402       .  A
C2921      C2922   1.402       .  A
C2922      N2923   1.446       .  S
N2923      O2927   1.262       .  A
N2923      O2928   1.263       .  A
N2926      O2930   1.262       .  A
C2931      C2932   1.411       .  A
C2931      C2936   1.396       .  A
C2931      H2938   1.084       .  S
C2932      C2933   1.406       .  A
C2933      C2934   1.402       .  A
C2933      N2940   1.430       .  S
C2934      C2935   1.410       .  A
C2934      H2939   1.081       .  S
C2935      C2936   1.409       .  A
C2936      N2937   1.428       .  S
N2940      O2944   1.263       .  A
N2940      O2943   1.261       .  A
C2945      C2946   1.414       .  A
C2945      C2950   1.383       .  A
C2945      H2952   1.083       .  S
C2946      C2947   1.416       .  A
C2947      C2948   1.413       .  A
C2947      N2954   1.427       .  S
C2948      C2949   1.412       .  A
C2948      H2953   1.084       .  S
C2949      C2950   1.408       .  A
N2951      O2955   1.261       .  A
N2951      O2956   1.262       .  A
N2954      O2958   1.262       .  A
N2954      O2957   1.262       .  A
C2959      C2960   1.407       .  A
C2959      C2964   1.398       .  A
C2960      C2961   1.405       .  A
C2961      C2962   1.397       .  A
C2962      C2963   1.416       .  A
C2962      H2967   1.085       .  S
C2963      C2964   1.417       .  A
C2964      N2965   1.426       .  S
N2965      O2969   1.262       .  A
N2965      O2970   1.263       .  A
N2968      O2972   1.262       .  A
N2968      O2971   1.262       .  A
C2973      C2974   1.386       .  A
C2973      C2978   1.393       .  A
C2973      H2980   1.084       .  S
C2974      C2975   1.413       .  A
C2975      C2976   1.393       .  A
C2975      N2982   1.431       .  S
C2976      C2977   1.398       .  A
C2976      H2981   1.081       .  S
C2977      C2978   1.436       .  A
C2978      N2979   1.431       .  S
N2979      O2983   1.262       .  A
N2979      O2984   1.262       .  A
N2982      O2986   1.262       .  A
C2987      C2988   1.406       .  A
C2987      C2992   1.401       .  A
C2988      C2989   1.399       .  A
C2989      C2990   1.396       .  A
C2990      C2991   1.422       .  A
C2990      H2995   1.080       .  S
C2991      C2992   1.417       .  A
C2992      N2993   1.428       .  S
N2993      O2998   1.262       .  A
N2996      O3000   1.262       .  A
