geometry optimzed in LAMMPS
_audit_creation_date              2020-11-30 
_audit_creation_method            'lammps2cif' 
_symmetry_space_group_name_H-M    'P1' 
_symmetry_Int_Tables_number       1 
_symmetry_cell_setting            triclinic 
loop_ 
_symmetry_equiv_pos_as_xyz 
  x,y,z 
_cell_length_a                    35.367481582586095 
_cell_length_b                    35.35986158794328 
_cell_length_c                    35.412441846555595 
_cell_angle_alpha                 90.14383464133057 
_cell_angle_beta                  90.3844501766006 
_cell_angle_gamma                 90.21507588027396 
loop_ 
_atom_site_label 
_atom_site_type_symbol 
_atom_site_fract_x 
_atom_site_fract_y 
_atom_site_fract_z 
_atom_site_charge 
O1          O  0.54815806  0.40564103  0.49705380    -0.80640
O2          O  0.51564277  0.24969052  0.43090194    -0.80660
O3          O  0.56422999  0.28537743  0.54386740    -0.80670
O4          O  0.48371349  0.34714024  0.40990830    -0.80610
O5          O  0.56311709  0.26066627  0.48763410    -0.80740
O6          O  0.49668160  0.39154097  0.45061812    -0.80660
O7          O  0.46003061  0.27160751  0.41543625    -0.80640
O8          O  0.57526434  0.35178508  0.50704808    -0.80680
C9          C  0.57817550  0.38793898  0.50299618     1.09050
C10         C  0.48926710  0.25324805  0.40737372     1.08930
C11         C  0.58069483  0.26714981  0.51791974     1.09070
C12         C  0.49472117  0.38061991  0.41731165     1.08950
O13         O  0.47194694  0.38283803  0.51301857    -0.80640
O14         O  0.50375808  0.24526306  0.54231996    -0.80720
O15         O  0.54131933  0.35335878  0.57515614    -0.80650
O16         O  0.42019870  0.28849601  0.48141799    -0.80630
O17         O  0.45285171  0.23492343  0.48314370    -0.80690
O18         O  0.49804539  0.38078722  0.53899582    -0.80650
O19         O  0.43085084  0.36245926  0.46996956    -0.80610
O20         O  0.48583817  0.30187782  0.56014135    -0.80680
Co21       Co  0.51956874  0.36039043  0.48943814     1.51530
Co22       Co  0.50832183  0.25139329  0.48578248     1.51690
Co23       Co  0.52654854  0.32634562  0.53099370     1.51570
Co24       Co  0.45266590  0.31700967  0.44729549     1.51470
O25         O  0.49773488  0.30838170  0.48383185    -1.42580
C26         C  0.43938967  0.38439065  0.49648690     1.08980
C27         C  0.49072387  0.26729539  0.56747830     1.09070
C28         C  0.51785469  0.37987299  0.56988659     1.09000
C29         C  0.42187049  0.25320857  0.48632648     1.08980
O30         O  0.51915571  0.39668688  0.35790327    -0.80640
O31         O  0.42651475  0.46129347  0.30260622    -0.80660
O32         O  0.48194211  0.47658573  0.40976166    -0.80670
O33         O  0.49313989  0.42124973  0.25510293    -0.80610
O34         O  0.43335834  0.46539461  0.37509124    -0.80740
O35         O  0.54408853  0.40327781  0.28622903    -0.80660
O36         O  0.44998587  0.48437530  0.25136926    -0.80640
O37         O  0.50972409  0.44311973  0.39844704    -0.80680
C38         C  0.50748065  0.40775787  0.38930667     1.09050
C39         C  0.42320944  0.46870168  0.26838656     1.08930
C40         C  0.44624361  0.47082733  0.40751441     1.09070
C41         C  0.51630297  0.39593442  0.26462635     1.08950
O42         O  0.58136848  0.47396612  0.31049174    -0.80640
O43         O  0.47015471  0.54036997  0.37331245    -0.80720
O44         O  0.55549743  0.50641747  0.40335969    -0.80650
O45         O  0.51487464  0.52931833  0.27052335    -0.80630
O46         O  0.45909469  0.53819471  0.29591395    -0.80690
O47         O  0.57637242  0.45148013  0.38257365    -0.80650
O48         O  0.55911334  0.46674767  0.25399865    -0.80610
O49         O  0.52597403  0.52970184  0.40116576    -0.80680
Co50       Co  0.54912193  0.43488509  0.33292739     1.51530
Co51       Co  0.45156578  0.49820728  0.33537034     1.51690
Co52       Co  0.51988827  0.49035256  0.36521290     1.51570
Co53       Co  0.50426701  0.47518377  0.26357551     1.51470
O54         O  0.49963261  0.46623442  0.32253986    -1.42580
C55         C  0.58633628  0.47378130  0.27570405     1.08980
C56         C  0.49641081  0.54970264  0.39730980     1.09070
C57         C  0.57884732  0.47955931  0.40558998     1.09000
C58         C  0.48789267  0.55093527  0.27886947     1.08980
O59         O  0.51017507  0.57907200  0.45546037    -0.80640
O60         O  0.56003060  0.71415357  0.48758916    -0.80660
O61         O  0.50727842  0.65424856  0.42785849    -0.80670
O62         O  0.59035589  0.62107212  0.52176404    -0.80610
O63         O  0.49503789  0.71147596  0.44716804    -0.80740
O64         O  0.55024382  0.57331821  0.51530170    -0.80660
O65         O  0.57932192  0.69592209  0.54304410    -0.80640
O66         O  0.46199677  0.60142490  0.42456188    -0.80680
C67         C  0.49010896  0.57884591  0.42548498     1.09050
C68         C  0.58623662  0.71030530  0.51145419     1.08930
C69         C  0.50428163  0.68900325  0.42124203     1.09070
C70         C  0.58359091  0.58660372  0.51487406     1.08950
O71         O  0.48616626  0.59393979  0.56458958    -0.80640
O72         O  0.45205176  0.70671636  0.51550821    -0.80720
O73         O  0.43177233  0.60482320  0.44847013    -0.80650
O74         O  0.51793631  0.67155800  0.58787624    -0.80630
O75         O  0.51545601  0.72502331  0.55642065    -0.80690
O76         O  0.43972410  0.59837525  0.50837204    -0.80650
O77         O  0.54400437  0.59922529  0.58113004    -0.80610
O78         O  0.43933132  0.67114420  0.46619122    -0.80680
Co79       Co  0.49712260  0.59195284  0.51081978     1.51530
Co80       Co  0.50599451  0.70910090  0.50256110     1.51690
Co81       Co  0.47872176  0.63070866  0.46988533     1.51570
Co82       Co  0.55365530  0.64738643  0.55384791     1.51470
O83         O  0.51266411  0.65051853  0.51031607    -1.42580
C84         C  0.51321642  0.58218369  0.58380050     1.08980
C85         C  0.42908587  0.69500730  0.49075586     1.09070
C86         C  0.42005672  0.59034905  0.47938060     1.09000
C87         C  0.51345760  0.70675388  0.58699998     1.08980
O88         O  0.61122610  0.44561035  0.50762233    -0.80640
O89         O  0.75016163  0.48231504  0.56077000    -0.80660
O90         O  0.72111106  0.39387024  0.47271899    -0.80670
O91         O  0.65443365  0.50182041  0.57537464    -0.80610
O92         O  0.75439016  0.41708993  0.52117901    -0.80740
O93         O  0.61265063  0.47524024  0.54018031    -0.80660
O94         O  0.69212876  0.50322705  0.57599481    -0.80640
O95         O  0.64410001  0.39530175  0.48979236    -0.80680
C96         C  0.61366802  0.40980321  0.50159562     1.09050
C97         C  0.72576744  0.49209807  0.58505521     1.08930
C98         C  0.74336015  0.38969717  0.50081664     1.09070
C99         C  0.62156581  0.48756034  0.57295590     1.08950
O100        O  0.60743050  0.52951752  0.49007876    -0.80640
O101        O  0.76236379  0.45592820  0.45207295    -0.80720
O102        O  0.63205589  0.45355374  0.43592763    -0.80650
O103        O  0.71553005  0.54550848  0.53386651    -0.80630
O104        O  0.75100773  0.52479744  0.48891641    -0.80690
O105        O  0.60555134  0.50360441  0.46234280    -0.80650
O106        O  0.64396281  0.56013643  0.53027041    -0.80610
O107        O  0.70646595  0.46181963  0.42731070    -0.80680
Co108      Co  0.64674305  0.48915252  0.49484800     1.51530
Co109      Co  0.75013252  0.47011403  0.50583237     1.51690
Co110      Co  0.67804271  0.42867391  0.46074947     1.51570
Co111      Co  0.67258451  0.51250997  0.52278958     1.51470
O112        O  0.69191068  0.46112371  0.50795290    -1.42580
C113        C  0.61361430  0.55891520  0.51068918     1.08980
C114        C  0.74136296  0.45987738  0.42352141     1.09070
C115        C  0.60685019  0.47938510  0.43578407     1.09000
C116        C  0.74060728  0.55157341  0.51006813     1.08980
O117        O  0.45081476  0.49002137  0.63212594    -0.80640
O118        O  0.50473259  0.53310427  0.71864657    -0.80660
O119        O  0.44648986  0.41938948  0.70935359    -0.80670
O120        O  0.53086744  0.53802552  0.63093299    -0.80610
O121        O  0.45014926  0.47947064  0.72556612    -0.80740
O122        O  0.49937940  0.51695395  0.58028450    -0.80660
O123        O  0.56288634  0.53478085  0.69816049    -0.80640
O124        O  0.44390461  0.42825338  0.63248308    -0.80680
C125        C  0.43282238  0.46087694  0.62138321     1.09050
C126        C  0.53488013  0.55141645  0.71313651     1.08930
C127        C  0.43148058  0.44913603  0.72282644     1.09070
C128        C  0.51345071  0.54410033  0.59928658     1.08950
O129        O  0.56053957  0.47560206  0.60144075    -0.80640
O130        O  0.50390217  0.42494381  0.75336229    -0.80720
O131        O  0.52336929  0.40239303  0.63078900    -0.80650
O132        O  0.58513305  0.45637075  0.69068324    -0.80630
O133        O  0.56100656  0.47908375  0.74350047    -0.80690
O134        O  0.49721422  0.43965207  0.58972108    -0.80650
O135        O  0.60228721  0.50795485  0.63496242    -0.80610
O136        O  0.52597403  0.39642522  0.70389930    -0.80680
Co137      Co  0.50506093  0.48528734  0.62245095     1.51530
Co138      Co  0.50505952  0.47893929  0.73176102     1.51690
Co139      Co  0.48668653  0.41390043  0.66952109     1.51570
Co140      Co  0.55666760  0.49273169  0.65982418     1.51470
O141        O  0.50992960  0.46560160  0.67541482    -1.42580
C142        C  0.59414226  0.48984958  0.60498140     1.08980
C143        C  0.51785318  0.39554070  0.73809565     1.09070
C144        C  0.51291306  0.40868932  0.59777663     1.09000
C145        C  0.58862017  0.46517638  0.72524192     1.08980
O146        O  0.42180547  0.44823108  0.50791965    -0.80640
O147        O  0.26119809  0.48118397  0.43583624    -0.80660
O148        O  0.31155930  0.41336388  0.53960025    -0.80670
O149        O  0.38533971  0.46390944  0.42828153    -0.80610
O150        O  0.27532268  0.42181598  0.48839559    -0.80740
O151        O  0.42344220  0.48405702  0.47363507    -0.80660
O152        O  0.31336908  0.46429961  0.40905995    -0.80640
O153        O  0.37738470  0.40795873  0.50627609    -0.80680
C154        C  0.41209863  0.41412494  0.50482455     1.09050
C155        C  0.27872373  0.47073709  0.40669998     1.08930
C156        C  0.28809950  0.40075258  0.51465428     1.09070
C157        C  0.41822414  0.47181009  0.43908657     1.08950
O158        O  0.38422522  0.54388181  0.51194379    -0.80640
O159        O  0.27371119  0.47468147  0.54662701    -0.80720
O160        O  0.38204386  0.43916987  0.57976660    -0.80650
O161        O  0.30626986  0.54250535  0.43953151    -0.80630
O162        O  0.27879968  0.53228051  0.49490664    -0.80690
O163        O  0.41415525  0.49073307  0.56347506    -0.80650
O164        O  0.38324325  0.54243219  0.44990315    -0.80610
O165        O  0.33024990  0.49246152  0.56202842    -0.80680
Co166      Co  0.38162797  0.48806116  0.51732995     1.51530
Co167      Co  0.27689567  0.47744634  0.49091680     1.51690
Co168      Co  0.35379300  0.45145537  0.53189476     1.51570
Co169      Co  0.34634574  0.50143431  0.43451080     1.51470
O170        O  0.33509549  0.47553842  0.48385341    -1.42580
C171        C  0.39253813  0.55864733  0.48055640     1.08980
C172        C  0.29664444  0.48606387  0.57131260     1.09070
C173        C  0.40784502  0.46402750  0.58757769     1.09000
C174        C  0.28826741  0.55432373  0.46856950     1.08980
O175        O  0.92289171  0.51089255  0.00060234    -0.80640
O176        O  0.76177532  0.45147234  0.05065638    -0.80660
O177        O  0.83107297  0.52790235  0.02225095    -0.80670
O178        O  0.89230052  0.44949563  0.06412816    -0.80610
O179        O  0.77252026  0.51527698  0.00569053    -0.80740
O180        O  0.92672975  0.48688856  0.02792917    -0.80660
O181        O  0.81766776  0.46194585  0.07418391    -0.80640
O182        O  0.88564456  0.55012509  0.96946782    -0.80680
C183        C  0.91809194  0.54309793  0.98479508     1.09050
C184        C  0.78262486  0.46017713  0.07840032     1.08930
C185        C  0.79687953  0.53785838  0.01935071     1.09070
C186        C  0.92168451  0.46976771  0.05879037     1.08950
O187        O  0.91147961  0.42779567  0.99168412    -0.80640
O188        O  0.77824926  0.46766850  0.94176522    -0.80720
O189        O  0.86979468  0.48446840  0.92658533    -0.80650
O190        O  0.80039690  0.38930393  0.03787280    -0.80630
O191        O  0.77025105  0.40561515  0.98548173    -0.80690
O192        O  0.90661945  0.45013703  0.95907227    -0.80650
O193        O  0.87720907  0.38425852  0.02022313    -0.80610
O194        O  0.80931237  0.52183077  0.94273419    -0.80680
Co195      Co  0.88032251  0.47441792  0.00302453     1.51530
Co196      Co  0.77444813  0.45974061  0.99579010     1.51690
Co197      Co  0.85178097  0.50377731  0.97648389     1.51570
Co198      Co  0.84493041  0.42357672  0.04467092     1.51470
O199        O  0.83222240  0.45157929  0.99441505    -1.42580
C200        C  0.90734020  0.39389254  0.00338497     1.08980
C201        C  0.78703245  0.49850874  0.92623145     1.09070
C202        C  0.89731828  0.46259533  0.92710800     1.09000
C203        C  0.77936528  0.38116623  0.00975058     1.08980
O204        O  0.92658126  0.44076563  0.86847217    -0.80640
O205        O  0.06677439  0.54369344  0.78754249    -0.80660
O206        O  0.00168444  0.53980052  0.88136822    -0.80670
O207        O  0.95315423  0.48392960  0.75978355    -0.80610
O208        O  0.06179510  0.54456025  0.86642627    -0.80740
O209        O  0.94320828  0.49678265  0.81854468    -0.80660
O210        O  0.00877450  0.53865643  0.76408283    -0.80640
O211        O  0.95061057  0.48895761  0.90098430    -0.80680
C212        C  0.92510155  0.46364866  0.89698350     1.09050
C213        C  0.03835299  0.55783607  0.77028070     1.08930
C214        C  0.03331442  0.55640523  0.88459512     1.09070
C215        C  0.93116431  0.49456217  0.78521407     1.08950
O216        O  0.95975466  0.41800874  0.79221371    -0.80640
O217        O  0.08559200  0.46823115  0.86746521    -0.80720
O218        O  0.00377562  0.44388890  0.90041208    -0.80650
O219        O  0.06300750  0.48396076  0.74216774    -0.80630
O220        O  0.09258539  0.46518333  0.79310430    -0.80690
O221        O  0.99508317  0.40511249  0.85511756    -0.80650
O222        O  0.00893343  0.42810441  0.75470161    -0.80610
O223        O  0.03411229  0.47585873  0.90241865    -0.80680
Co224      Co  0.97249468  0.45256840  0.83670841     1.51530
Co225      Co  0.07262013  0.50336479  0.82769860     1.51690
Co226      Co  0.99053053  0.48722866  0.86379874     1.51570
Co227      Co  0.00924674  0.48347170  0.75986208     1.51470
O228        O  0.02139464  0.47713525  0.81714160    -1.42580
C229        C  0.98368266  0.40616644  0.76768999     1.08980
C230        C  0.07006703  0.46912248  0.89916431     1.09070
C231        C  0.99996722  0.40958699  0.88966233     1.09000
C232        C  0.09158597  0.46974621  0.75803993     1.08980
O233        O  0.11756393  0.41708032  0.00744039    -0.80640
O234        O  0.26474951  0.48057296  0.03324064    -0.80660
O235        O  0.19654063  0.40103550  0.00550655    -0.80670
O236        O  0.14216126  0.48182490  0.07358160    -0.80610
O237        O  0.24915038  0.42334712  0.98087562    -0.80740
O238        O  0.12064887  0.43919570  0.03343440    -0.80660
O239        O  0.21573036  0.46941160  0.06964097    -0.80640
O240        O  0.13637596  0.38475286  0.95782955    -0.80680
C241        C  0.11442742  0.38769580  0.98589599     1.09050
C242        C  0.25077488  0.47167468  0.06522875     1.08930
C243        C  0.23058435  0.39670113  0.99617427     1.09070
C244        C  0.12139036  0.45401203  0.06642978     1.08950
O245        O  0.10346509  0.50680940  0.01578227    -0.80640
O246        O  0.22217580  0.48024652  0.92820248    -0.80720
O247        O  0.13014766  0.45664002  0.92964620    -0.80650
O248        O  0.22621147  0.54303929  0.03702672    -0.80630
O249        O  0.23721307  0.53499544  0.97710645    -0.80690
O250        O  0.08035414  0.46269870  0.96501348    -0.80650
O251        O  0.14893166  0.54722742  0.02576585    -0.80610
O252        O  0.19944422  0.42291762  0.92635955    -0.80680
Co253      Co  0.13054612  0.46975713  0.98570946     1.51530
Co254      Co  0.23992469  0.47954945  0.98061842     1.51690
Co255      Co  0.16439632  0.43035952  0.97095631     1.51570
Co256      Co  0.18328307  0.50776842  0.04788849     1.51470
O257        O  0.18511592  0.47707541  0.99863244    -1.42580
C258        C  0.11501140  0.54012307  0.01612182     1.08980
C259        C  0.21485446  0.45075602  0.90971682     1.09070
C260        C  0.09407014  0.46169283  0.93246407     1.09000
C261        C  0.23754119  0.55585731  0.00585237     1.08980
O262        O  0.93269889  0.47308043  0.12154452    -0.80640
O263        O  0.04633115  0.40623099  0.18709444    -0.80660
O264        O  0.00936204  0.44428918  0.07942443    -0.80670
O265        O  0.95494072  0.48138260  0.24492636    -0.80610
O266        O  0.00546340  0.40360418  0.12312031    -0.80740
O267        O  0.92243345  0.47101252  0.19323221    -0.80660
O268        O  0.00068332  0.41948864  0.22806380    -0.80640
O269        O  0.98279536  0.47943567  0.08459199    -0.80680
C270        C  0.94701075  0.47504946  0.08961618     1.09050
C271        C  0.02304377  0.39602922  0.21271723     1.08930
C272        C  0.00448828  0.40969345  0.08819878     1.09070
C273        C  0.92471904  0.47181598  0.22843207     1.08950
O274        O  0.95966309  0.54440687  0.20136656    -0.80640
O275        O  0.08134913  0.42662373  0.11462732    -0.80720
O276        O  0.02512068  0.53416634  0.10813144    -0.80650
O277        O  0.06327004  0.46815423  0.22421172    -0.80630
O278        O  0.07320158  0.48270322  0.16579932    -0.80690
O279        O  0.96590298  0.54610165  0.12249025    -0.80650
O280        O  0.01612525  0.52986064  0.22439349    -0.80610
O281        O  0.06646393  0.47991820  0.08617994    -0.80680
Co282      Co  0.94832725  0.50656301  0.16041218     1.51530
Co283      Co  0.03723951  0.44431570  0.14555664     1.51690
Co284      Co  0.02696837  0.48062012  0.12281543     1.51570
Co285      Co  0.00781526  0.47487508  0.22609010     1.51470
O286        O  0.99417982  0.47344193  0.16904410    -1.42580
C287        C  0.99083128  0.55395098  0.21689928     1.08980
C288        C  0.08838286  0.45182430  0.08952943     1.09070
C289        C  0.99584536  0.55387808  0.10430122     1.09000
C290        C  0.08542005  0.47807927  0.19866142     1.08980
O291        O  0.97295989  0.37758149  0.99629693    -0.80640
O292        O  0.00753918  0.22098767  0.05065587    -0.80660
O293        O  0.94201040  0.27420319  0.94851513    -0.80670
O294        O  0.01146610  0.34563360  0.07438431    -0.80610
O295        O  0.95048284  0.23654635  0.99838177    -0.80740
O296        O  0.00679137  0.38113249  0.02463940    -0.80660
O297        O  0.01548136  0.27328597  0.08493177    -0.80640
O298        O  0.93288621  0.33401754  0.98669573    -0.80680
C299        C  0.93842373  0.36732789  0.99582515     1.09050
C300        C  0.00811694  0.23853887  0.08193064     1.08930
C301        C  0.92955965  0.24929358  0.97206163     1.09070
C302        C  0.00630157  0.37757197  0.06073161     1.08950
O303        O  0.05382181  0.37215738  0.96807110    -0.80640
O304        O  0.00305939  0.23937059  0.94086818    -0.80720
O305        O  0.97292246  0.35169856  0.91754046    -0.80650
O306        O  0.07995857  0.26746245  0.03940827    -0.80630
O307        O  0.06091659  0.23500034  0.99005796    -0.80690
O308        O  0.02338301  0.37843890  0.94374390    -0.80650
O309        O  0.07648514  0.34331304  0.01961412    -0.80610
O310        O  0.02354552  0.29623866  0.93333160    -0.80680
Co311      Co  0.01507467  0.33948075  0.98306609     1.51530
Co312      Co  0.00542840  0.23733975  0.99651755     1.51690
Co313      Co  0.97979955  0.31608272  0.96243488     1.51570
Co314      Co  0.04202254  0.30663868  0.05060679     1.51470
O315        O  0.99996737  0.29411210  0.01109909    -1.42580
C316        C  0.08080211  0.36511274  0.99059512     1.08980
C317        C  0.01735932  0.26395431  0.91984643     1.09070
C318        C  0.99887172  0.37797621  0.91707834     1.09000
C319        C  0.08660842  0.24532990  0.01246916     1.08980
O320        O  0.98328089  0.54955720  0.98504221    -0.80640
O321        O  0.01960205  0.69539224  0.92736776    -0.80660
O322        O  0.95806508  0.67293904  0.03437938    -0.80670
O323        O  0.07013047  0.59785285  0.92618777    -0.80610
O324        O  0.96526453  0.69109011  0.97675731    -0.80740
O325        O  0.00849412  0.59707599  0.93218158    -0.80660
O326        O  0.07864415  0.67597643  0.92318805    -0.80640
O327        O  0.95299787  0.60274093  0.99615146    -0.80680
C328        C  0.95227718  0.56709794  0.98698973     1.09050
C329        C  0.04925258  0.69090501  0.90859411     1.08930
C330        C  0.94514581  0.68883539  0.00547445     1.09070
C331        C  0.03752077  0.58699263  0.91412306     1.08950
O332        O  0.05879615  0.56054450  0.98574346    -0.80640
O333        O  0.01823598  0.71423353  0.03786084    -0.80720
O334        O  0.97049449  0.60810343  0.07217266    -0.80650
O335        O  0.10276606  0.67545825  0.00309580    -0.80630
O336        O  0.07267858  0.72422190  0.98112553    -0.80690
O337        O  0.01897199  0.58015102  0.04596718    -0.80650
O338        O  0.09810374  0.60309498  0.00623755    -0.80610
O339        O  0.02998175  0.65840849  0.06398261    -0.80680
Co340      Co  0.01266541  0.59330624  0.98787052     1.51530
Co341      Co  0.01927911  0.70264345  0.98144795     1.51690
Co342      Co  0.99522689  0.63112763  0.02952650     1.51570
Co343      Co  0.08436428  0.63852115  0.96623861     1.51470
O344        O  0.03180579  0.64648494  0.98824453    -1.42580
C345        C  0.08922076  0.56921252  0.00276681     1.08980
C346        C  0.02701268  0.69403651  0.06655953     1.09070
C347        C  0.99515765  0.58244149  0.07351501     1.09000
C348        C  0.10237720  0.70972407  0.99492221     1.08980
O349        O  0.59833600  0.83303757  0.97896276    -0.80640
O350        O  0.46764692  0.76737886  0.06142704    -0.80660
O351        O  0.52433561  0.87106849  0.03092561    -0.80670
O352        O  0.58161280  0.73023664  0.01603402    -0.80610
O353        O  0.50356126  0.83129508  0.07069069    -0.80740
O354        O  0.59544809  0.75702297  0.96149760    -0.80660
O355        O  0.52240812  0.73818209  0.06226679    -0.80640
O356        O  0.55227679  0.87012217  0.99937692    -0.80680
C357        C  0.58782884  0.86400984  0.99337852     1.09050
C358        C  0.49263287  0.74811338  0.07879965     1.08930
C359        C  0.51759212  0.86312147  0.06513014     1.09070
C360        C  0.60479522  0.73762182  0.99021696     1.08950
O361        O  0.52210258  0.77113743  0.92642385    -0.80640
O362        O  0.43549068  0.83739042  0.03093533    -0.80720
O363        O  0.48821167  0.87373811  0.95905969    -0.80650
O364        O  0.47075467  0.72637871  0.00091940    -0.80630
O365        O  0.45712069  0.78287676  0.98045377    -0.80690
O366        O  0.53676353  0.84854902  0.92900190    -0.80650
O367        O  0.53321723  0.71681386  0.95341915    -0.80610
O368        O  0.46366817  0.87194791  0.98703593    -0.80680
Co369      Co  0.56032083  0.80072957  0.95382213     1.51530
Co370      Co  0.48253327  0.80771655  0.02395022     1.51690
Co371      Co  0.50621976  0.83416870  0.99000338     1.51570
Co372      Co  0.52709992  0.73183147  0.00790428     1.51470
O373        O  0.53369054  0.79009608  0.00528039    -1.42580
C374        C  0.52488924  0.73587409  0.92446935     1.08980
C375        C  0.43507007  0.86614835  0.00876920     1.09070
C376        C  0.51111349  0.87401786  0.93165954     1.09000
C377        C  0.44756524  0.74886996  0.98552660     1.08980
O378        O  0.55819924  0.97511795  0.89787667    -0.80640
O379        O  0.49618386  0.02241339  0.74945599    -0.80660
O380        O  0.58223460  0.98938046  0.81264839    -0.80670
O381        O  0.51737990  0.05146931  0.87296196    -0.80610
O382        O  0.55488887  0.97057672  0.75896932    -0.80740
O383        O  0.49636731  0.00863401  0.91119147    -0.80660
O384        O  0.51621951  0.05636772  0.79748512    -0.80640
O385        O  0.59760571  0.93643774  0.86901726    -0.80680
C386        C  0.58953485  0.95684447  0.89737272     1.09050
C387        C  0.50870184  0.05360863  0.76290732     1.08930
C388        C  0.58305517  0.98444628  0.77710644     1.09070
C389        C  0.50847412  0.04166608  0.90565472     1.08950
O390        O  0.44976839  0.95573355  0.86931841    -0.80640
O391        O  0.50001054  0.91461123  0.78543174    -0.80720
O392        O  0.52640832  0.90916351  0.87477455    -0.80650
O393        O  0.43921274  0.02642200  0.79513484    -0.80630
O394        O  0.44435000  0.96641548  0.77960471    -0.80690
O395        O  0.49908849  0.93719801  0.92333931    -0.80650
O396        O  0.44108639  0.01707114  0.87190381    -0.80610
O397        O  0.55868092  0.91312275  0.80439868    -0.80680
Co398      Co  0.50356057  0.96381957  0.87876468     1.51530
Co399      Co  0.49922190  0.96881579  0.77179261     1.51690
Co400      Co  0.55275847  0.95369909  0.84347322     1.51570
Co401      Co  0.48075441  0.03497013  0.83383729     1.51470
O402        O  0.50707112  0.98390144  0.82694446    -1.42580
C403        C  0.43144142  0.98354164  0.88150458     1.08980
C404        C  0.53027280  0.89644583  0.79005405     1.09070
C405        C  0.51191427  0.90777720  0.90839840     1.09000
C406        C  0.42448379  0.99576582  0.78300096     1.08980
O407        O  0.48615430  0.05579185  0.96441013    -0.80640
O408        O  0.56849382  0.18052318  0.99420573    -0.80660
O409        O  0.45787876  0.15640036  0.91033607    -0.80670
O410        O  0.56971720  0.10549212  0.99542466    -0.80610
O411        O  0.51297380  0.17991726  0.93096166    -0.80740
O412        O  0.53897866  0.05684991  0.01675332    -0.80660
O413        O  0.58539041  0.15728692  0.05067086    -0.80640
O414        O  0.50931223  0.10364500  0.93282484    -0.80680
C415        C  0.50319781  0.06857154  0.93603118     1.09050
C416        C  0.59288096  0.17709206  0.02165313     1.08930
C417        C  0.48739627  0.17606865  0.90462118     1.09070
C418        C  0.56796866  0.07025960  0.99958049     1.08950
O419        O  0.47958014  0.08822432  0.06976242    -0.80640
O420        O  0.45940377  0.21308513  0.98409989    -0.80720
O421        O  0.42987725  0.09573393  0.95181451    -0.80650
O422        O  0.51289590  0.16154734  0.07358826    -0.80630
O423        O  0.50914783  0.21251877  0.04023510    -0.80690
O424        O  0.42864431  0.08518795  0.01249905    -0.80650
O425        O  0.54010712  0.09360933  0.07554930    -0.80610
O426        O  0.42750307  0.16153177  0.98032928    -0.80680
Co427      Co  0.48358797  0.07513792  0.01611284     1.51530
Co428      Co  0.51071392  0.18904527  0.98913905     1.51690
Co429      Co  0.47026269  0.13572315  0.95744389     1.51570
Co430      Co  0.53996318  0.13519775  0.03391510     1.51470
O431        O  0.49288620  0.13099533  0.00638280    -1.42580
C432        C  0.50864110  0.08152893  0.08879203     1.08980
C433        C  0.42817536  0.19628850  0.98510502     1.09070
C434        C  0.41359966  0.08131871  0.98019867     1.09000
C435        C  0.50624110  0.19601480  0.07129158     1.08980
O436        O  0.50582444  0.92278176  0.09555650    -0.80640
O437        O  0.45961130  0.97716188  0.24465508    -0.80660
O438        O  0.49145579  0.89666620  0.18060795    -0.80670
O439        O  0.43171153  0.96911816  0.11847382    -0.80610
O440        O  0.51244339  0.92008360  0.23489992    -0.80740
O441        O  0.47534554  0.99210846  0.08302892    -0.80660
O442        O  0.42710506  0.96175866  0.19368249    -0.80640
O443        O  0.54366880  0.88220491  0.12468241    -0.80680
C444        C  0.52337809  0.89052851  0.09627602     1.09050
C445        C  0.42890842  0.96576947  0.22885453     1.08930
C446        C  0.49750703  0.89335089  0.21576711     1.09070
C447        C  0.44269664  0.97855208  0.08621526     1.08950
O448        O  0.53094985  0.03129223  0.12784146    -0.80640
O449        O  0.56920255  0.97542617  0.21262329    -0.80720
O450        O  0.57212155  0.95291915  0.12058190    -0.80650
O451        O  0.45737511  0.03730819  0.20486627    -0.80630
O452        O  0.51745328  0.03103085  0.21918806    -0.80690
O453        O  0.54410117  0.98219720  0.07260027    -0.80650
O454        O  0.47022169  0.04373600  0.12898448    -0.80610
O455        O  0.56957187  0.91831594  0.18930875    -0.80680
Co456      Co  0.51855819  0.97778073  0.11642838     1.51530
Co457      Co  0.51424396  0.97603646  0.22441610     1.51690
Co458      Co  0.52783954  0.92653672  0.15096269     1.51570
Co459      Co  0.44946022  0.00063663  0.16189192     1.51470
O460        O  0.49955303  0.97256995  0.16844832    -1.42580
C461        C  0.50404517  0.05312000  0.11954315     1.08980
C462        C  0.58697249  0.94527101  0.20571999     1.09070
C463        C  0.57307652  0.96803430  0.08729490     1.09000
C464        C  0.48849633  0.05137384  0.21612958     1.08980
O465        O  0.40431812  0.92207430  0.98553546    -0.80640
O466        O  0.25275644  0.98108889  0.94391780    -0.80660
O467        O  0.32211185  0.90183668  0.97724618    -0.80670
O468        O  0.37419115  0.96551804  0.91017908    -0.80610
O469        O  0.26751487  0.92466922  0.99738631    -0.80740
O470        O  0.41668047  0.98967349  0.94679135    -0.80660
O471        O  0.30080196  0.96085419  0.91170583    -0.80640
O472        O  0.37711898  0.89029447  0.03159098    -0.80680
C473        C  0.40396183  0.89355694  0.00857210     1.09050
C474        C  0.26632355  0.96776901  0.91348629     1.08930
C475        C  0.28749937  0.89754958  0.98477965     1.09070
C476        C  0.40682284  0.97814230  0.91430325     1.08950
O477        O  0.37740083  0.03198291  0.00353119    -0.80640
O478        O  0.29286833  0.98384873  0.05014428    -0.80720
O479        O  0.38425783  0.96310573  0.05282216    -0.80650
O480        O  0.29506348  0.03996314  0.93655036    -0.80630
O481        O  0.28295593  0.03563886  0.99708763    -0.80690
O482        O  0.43410151  0.98203455  0.02068451    -0.80650
O483        O  0.37186609  0.04322175  0.94257918    -0.80610
O484        O  0.31459732  0.92679806  0.05305037    -0.80680
Co485      Co  0.38758717  0.97840498  0.99481733     1.51530
Co486      Co  0.27752288  0.98099172  0.99655014     1.51690
Co487      Co  0.35210816  0.93340048  0.01150503     1.51570
Co488      Co  0.33530750  0.00047359  0.92791131     1.51470
O489        O  0.33295810  0.97639770  0.97985441    -1.42580
C490        C  0.38372418  0.05287640  0.97548132     1.08980
C491        C  0.29891581  0.95445968  0.06900012     1.09070
C492        C  0.41933122  0.97407281  0.05202490     1.09000
C493        C  0.28423075  0.05482581  0.96734593     1.08980
O494        O  0.64807009  0.88463293  0.01722800    -0.80640
O495        O  0.70474749  0.01917039  0.93128790    -0.80660
O496        O  0.60850182  0.95339335  0.96231986    -0.80670
O497        O  0.74894835  0.90441332  0.97758833    -0.80610
O498        O  0.64360883  0.98408174  0.92492705    -0.80740
O499        O  0.72463560  0.89171862  0.03333014    -0.80660
O500        O  0.73702116  0.96531695  0.93049064    -0.80640
O501        O  0.60948999  0.92822794  0.99457219    -0.80680
C502        C  0.61649384  0.89344362  0.00257993     1.09050
C503        C  0.72453772  0.99445489  0.91368842     1.08930
C504        C  0.61568869  0.96334331  0.92885320     1.09070
C505        C  0.74350863  0.88185599  0.00466637     1.08950
O506        O  0.70797756  0.96499069  0.06678765    -0.80640
O507        O  0.62987765  0.05006352  0.96931045    -0.80720
O508        O  0.60298604  0.98923193  0.03490644    -0.80650
O509        O  0.74986551  0.01548818  0.99086503    -0.80630
O510        O  0.69428242  0.03073073  0.01319304    -0.80690
O511        O  0.63262352  0.94503774  0.06757905    -0.80650
O512        O  0.76228466  0.95457653  0.04020727    -0.80610
O513        O  0.59919052  0.01230522  0.00804071    -0.80680
Co514      Co  0.67975528  0.92487832  0.04061618     1.51530
Co515      Co  0.66690712  0.00453970  0.97174809     1.51690
Co516      Co  0.64242169  0.97588160  0.00315955     1.51570
Co517      Co  0.74578591  0.95966624  0.98507490     1.51470
O518        O  0.68790953  0.95237355  0.98870718    -1.42580
C519        C  0.74321196  0.96274206  0.06932675     1.08980
C520        C  0.60048101  0.04401848  0.99053640     1.09070
C521        C  0.60554901  0.96842074  0.06372455     1.09000
C522        C  0.72812280  0.03945110  0.00566648     1.08980
O523        O  0.02287125  0.87734783  0.54772390    -0.80640
O524        O  0.05960831  0.72320236  0.48439284    -0.80660
O525        O  0.02343195  0.78984680  0.55777520    -0.80670
O526        O  0.09475053  0.82717701  0.44320275    -0.80610
O527        O  0.00849365  0.73092342  0.54423972    -0.80740
O528        O  0.06872020  0.85680424  0.49207193    -0.80660
O529        O  0.07750023  0.77990108  0.49938350    -0.80640
O530        O  0.97423369  0.84862816  0.57438623    -0.80680
C531        C  0.99881594  0.87615483  0.57424542     1.09050
C532        C  0.08515498  0.74558969  0.49542176     1.08930
C533        C  0.02035461  0.75564010  0.56740764     1.09070
C534        C  0.09594288  0.85284939  0.46819345     1.08950
O535        O  0.00611351  0.87308871  0.46489493    -0.80640
O536        O  0.94894026  0.73613997  0.49142119    -0.80720
O537        O  0.93489658  0.83341883  0.50470577    -0.80650
O538        O  0.05275817  0.76296558  0.42195018    -0.80630
O539        O  0.99989686  0.73051935  0.43225478    -0.80690
O540        O  0.97578416  0.87536540  0.49047098    -0.80650
O541        O  0.02151010  0.83350091  0.41919483    -0.80610
O542        O  0.94449681  0.77116761  0.54348018    -0.80680
Co543      Co  0.01656044  0.83785109  0.51006234     1.51530
Co544      Co  0.00393169  0.73342409  0.48791660     1.51690
Co545      Co  0.98105960  0.81254460  0.52943207     1.51570
Co546      Co  0.04819355  0.80527594  0.45894360     1.51470
O547        O  0.00132229  0.79090132  0.48078492    -1.42580
C548        C  0.00905435  0.86528857  0.42935693     1.08980
C549        C  0.93018916  0.74799656  0.51940616     1.09070
C550        C  0.94083155  0.86588501  0.49255017     1.09000
C551        C  0.02648474  0.74090260  0.41053909     1.08980
O552        O  0.88368597  0.88780876  0.46119269    -0.80640
O553        O  0.82081060  0.95830833  0.56272016    -0.80660
O554        O  0.91030804  0.97294872  0.56597383    -0.80670
O555        O  0.76879326  0.91961149  0.48494295    -0.80610
O556        O  0.86829467  0.01376932  0.58797644    -0.80740
O557        O  0.82436626  0.90353519  0.50623648    -0.80660
O558        O  0.76455189  0.97344086  0.54292951    -0.80640
O559        O  0.90852081  0.92224626  0.50807928    -0.80680
C560        C  0.90952839  0.89300075  0.48613068     1.09050
C561        C  0.78613512  0.96271834  0.56950053     1.08930
C562        C  0.89829188  0.99394205  0.59296153     1.09070
C563        C  0.79044445  0.89532388  0.49919136     1.08950
O564        O  0.81607643  0.92406837  0.42606654    -0.80640
O565        O  0.86785114  0.04978161  0.51805698    -0.80720
O566        O  0.91826192  0.98213663  0.47842716    -0.80650
O567        O  0.77433449  0.03142785  0.48878321    -0.80630
O568        O  0.80043095  0.03603050  0.54565425    -0.80690
O569        O  0.88553219  0.95784039  0.43095851    -0.80650
O570        O  0.77996368  0.97572516  0.43147357    -0.80610
O571        O  0.91293890  0.01321948  0.50146140    -0.80680
Co572      Co  0.85362882  0.93273697  0.46880104     1.51530
Co573      Co  0.84510270  0.00220587  0.53799399     1.51690
Co574      Co  0.87837191  0.97099717  0.52042751     1.51570
Co575      Co  0.77547387  0.97549293  0.48696940     1.51470
O576        O  0.83352017  0.98029147  0.48618216    -1.42580
C577        C  0.79230706  0.94786983  0.41223324     1.08980
C578        C  0.90082618  0.04687332  0.50594786     1.09070
C579        C  0.91580041  0.97261059  0.44294457     1.09000
C580        C  0.77958823  0.04952390  0.51947905     1.08980
O581        O  0.14442064  0.95147391  0.42431508    -0.80640
O582        O  0.20562831  0.03787500  0.54495484    -0.80660
O583        O  0.10131854  0.99375471  0.49649756    -0.80670
O584        O  0.24288197  0.98179733  0.43237750    -0.80610
O585        O  0.13875533  0.03750114  0.51509137    -0.80740
O586        O  0.21595777  0.92549047  0.42587206    -0.80660
O587        O  0.23626926  0.03549918  0.49002318    -0.80640
O588        O  0.10522928  0.96659754  0.46993515    -0.80680
C589        C  0.11234864  0.96279213  0.43437217     1.09050
C590        C  0.22426010  0.05404880  0.51831160     1.08930
C591        C  0.10693133  0.02884328  0.50238443     1.09070
C592        C  0.23335767  0.95361934  0.41193175     1.08950
O593        O  0.20407141  0.90250056  0.50369175    -0.80640
O594        O  0.13594770  0.99655872  0.58213787    -0.80720
O595        O  0.12229757  0.90705157  0.49491698    -0.80650
O596        O  0.25305178  0.98060915  0.54492081    -0.80630
O597        O  0.19921202  0.95596116  0.56166161    -0.80690
O598        O  0.15474445  0.88038894  0.44865499    -0.80650
O599        O  0.25878647  0.92544136  0.48715098    -0.80610
O600        O  0.10616747  0.94894937  0.55307254    -0.80680
Co601      Co  0.17511862  0.92838443  0.46384468     1.51530
Co602      Co  0.16845851  0.99473540  0.53557119     1.51690
Co603      Co  0.14269335  0.95764243  0.51436522     1.51570
Co604      Co  0.24467709  0.98064044  0.48848255     1.51470
O605        O  0.18693679  0.97713592  0.48465235    -1.42580
C606        C  0.23889043  0.89813169  0.49887898     1.08980
C607        C  0.10945128  0.97098617  0.58124376     1.09070
C608        C  0.12657182  0.88044360  0.47056688     1.09000
C609        C  0.23265908  0.96547164  0.56997343     1.08980
O610        O  0.94319406  0.08713169  0.47212861    -0.80640
O611        O  0.99689565  0.18415014  0.43684623    -0.80660
O612        O  0.93383386  0.16337632  0.55357386    -0.80670
O613        O  0.06189130  0.09637334  0.42481153    -0.80610
O614        O  0.94177649  0.18074810  0.49441181    -0.80740
O615        O  0.00046974  0.09218800  0.42324679    -0.80660
O616        O  0.05805972  0.17303243  0.43253518    -0.80640
O617        O  0.93684188  0.09758357  0.53098339    -0.80680
C618        C  0.92573779  0.08026514  0.50197277     1.09050
C619        C  0.02731223  0.18535538  0.41828125     1.08930
C620        C  0.92093692  0.17933087  0.52423823     1.09070
C621        C  0.03162948  0.08537680  0.40819857     1.08950
O622        O  0.04862331  0.04937853  0.47572812    -0.80640
O623        O  0.00378286  0.20015071  0.54938512    -0.80720
O624        O  0.99750733  0.10671784  0.56651875    -0.80650
O625        O  0.08211386  0.16497840  0.51298066    -0.80630
O626        O  0.05241907  0.21254262  0.48973469    -0.80690
O627        O  0.99545894  0.05550091  0.52903066    -0.80650
O628        O  0.08483970  0.09111889  0.50391491    -0.80610
O629        O  0.00274749  0.14363986  0.57398659    -0.80680
Co630      Co  0.99755011  0.07531599  0.47561871     1.51530
Co631      Co  0.99986883  0.18832000  0.49203034     1.51690
Co632      Co  0.97432083  0.14029173  0.52664908     1.51570
Co633      Co  0.06859750  0.13176286  0.47053577     1.51470
O634        O  0.01509299  0.12873338  0.49233568    -1.42580
C635        C  0.07850318  0.05765011  0.49395504     1.08980
C636        C  0.00698890  0.17899556  0.57850344     1.09070
C637        C  0.99945810  0.07072038  0.56166264     1.09000
C638        C  0.08161583  0.19940862  0.50567558     1.08980
O639        O  0.01424292  0.92684240  0.40368296    -0.80640
O640        O  0.05538821  0.97936978  0.24997231    -0.80660
O641        O  0.02366750  0.89910662  0.31805742    -0.80670
O642        O  0.08968124  0.96283833  0.37201083    -0.80610
O643        O  0.00172425  0.92296484  0.26458247    -0.80740
O644        O  0.05376813  0.98901855  0.41423331    -0.80660
O645        O  0.08904894  0.95813435  0.29693315    -0.80640
O646        O  0.97447622  0.88666039  0.37563022    -0.80680
C647        C  0.99828839  0.89391668  0.40157611     1.09050
C648        C  0.08627011  0.96552408  0.26250328     1.08930
C649        C  0.01580395  0.89558356  0.28323140     1.09070
C650        C  0.08386798  0.97186614  0.40577287     1.08950
O651        O  0.00180794  0.03697413  0.37327726    -0.80640
O652        O  0.94952763  0.98117044  0.29124144    -0.80720
O653        O  0.94916666  0.95952301  0.38405798    -0.80650
O654        O  0.06423297  0.03762750  0.29206672    -0.80630
O655        O  0.00296073  0.03361518  0.28147007    -0.80690
O656        O  0.97950362  0.98944834  0.43043884    -0.80650
O657        O  0.06364130  0.04136888  0.36857711    -0.80610
O658        O  0.94685268  0.92380668  0.31277546    -0.80680
Co659      Co  0.00546106  0.98257479  0.38444399     1.51530
Co660      Co  0.00299277  0.97918825  0.27541648     1.51690
Co661      Co  0.99039918  0.93084744  0.34973960     1.51570
Co662      Co  0.07380854  0.99790589  0.33219539     1.51470
O663        O  0.02060085  0.97528328  0.33078436    -1.42580
C664        C  0.03223491  0.05510920  0.37944114     1.08980
C665        C  0.93108126  0.95106451  0.29566781     1.09070
C666        C  0.94931557  0.97492650  0.41776432     1.09000
C667        C  0.03299763  0.05268899  0.28225473     1.08980
O668        O  0.98630269  0.94012368  0.58246779    -0.80640
O669        O  0.94349535  0.97850379  0.73077363    -0.80660
O670        O  0.05263529  0.92151349  0.69980909    -0.80670
O671        O  0.93354230  0.02896901  0.63726773    -0.80610
O672        O  0.99650584  0.92256931  0.72411291    -0.80740
O673        O  0.93937797  0.96681683  0.63684055    -0.80660
O674        O  0.94108444  0.03835737  0.71326954    -0.80640
O675        O  0.01407686  0.91325983  0.63139534    -0.80680
C676        C  0.99792005  0.91050702  0.59822730     1.09050
C677        C  0.92503719  0.00865484  0.72587630     1.08930
C678        C  0.02649812  0.90465903  0.71703393     1.09070
C679        C  0.92164189  0.99635867  0.62707714     1.08950
O680        O  0.98466796  0.01354843  0.59085315    -0.80640
O681        O  0.05544386  0.97862563  0.74179727    -0.80720
O682        O  0.08715706  0.94170385  0.63622792    -0.80650
O683        O  0.02056019  0.06051835  0.70220255    -0.80630
O684        O  0.00041555  0.03272019  0.75327884    -0.80690
O685        O  0.04865701  0.98089642  0.60619618    -0.80650
O686        O  0.01072318  0.05637911  0.62661041    -0.80610
O687        O  0.07322301  0.99816061  0.68559159    -0.80680
Co688      Co  0.99329475  0.97041849  0.62550720     1.51530
Co689      Co  0.99866137  0.97820332  0.73404292     1.51690
Co690      Co  0.04277522  0.95953037  0.65958678     1.51570
Co691      Co  0.97835781  0.04339147  0.67051418     1.51470
O692        O  0.99938147  0.99043427  0.67710488    -1.42580
C693        C  0.99965425  0.04564789  0.59442077     1.08980
C694        C  0.08055246  0.99227244  0.71997863     1.09070
C695        C  0.08143607  0.96547923  0.61030108     1.09000
C696        C  0.01506409  0.06130136  0.73707087     1.08980
C697        C  0.01541309  0.23601037  0.23507492     0.00060
C698        C  0.02273982  0.21213634  0.26382436     0.00060
C699        C  0.77457870  0.93756380  0.25490533     0.00060
C700        C  0.75002078  0.94252486  0.22532449     0.00060
C701        C  0.01917358  0.71315530  0.22350160     0.00060
C702        C  0.02037779  0.73867029  0.25194166     0.00060
C703        C  0.27323806  0.95540737  0.22873870     0.00060
C704        C  0.24178180  0.95822678  0.25036559     0.00060
C705        C  0.26717989  0.24031614  0.51315991     0.00060
C706        C  0.23723981  0.21617063  0.51460255     0.00060
C707        C  0.73907241  0.23490650  0.52816813     0.00060
C708        C  0.76169236  0.20429714  0.52603041     0.00060
C709        C  0.27157376  0.71361782  0.48591690     0.00060
C710        C  0.24533689  0.73919193  0.49684853     0.00060
C711        C  0.26393143  0.98273088  0.75920862     0.00060
C712        C  0.24008589  0.98010122  0.72913458     0.00060
C713        C  0.27274740  0.21398606  0.98412719     0.00060
C714        C  0.24509573  0.23875690  0.99232929     0.00060
C715        C  0.25919685  0.71421487  0.99097834     0.00060
C716        C  0.28668762  0.73965542  0.98279244     0.00060
C717        C  0.49761406  0.71028882  0.26399304     0.00060
C718        C  0.48776184  0.73731690  0.23877532     0.00060
C719        C  0.50167931  0.23734102  0.25150025     0.00060
C720        C  0.49541779  0.21207774  0.22375976     0.00060
C721        C  0.50546689  0.20861349  0.74846833     0.00060
C722        C  0.50189059  0.24073147  0.72754543     0.00060
C723        C  0.00428822  0.24814229  0.75899768     0.00060
C724        C  0.00820407  0.21761305  0.73565302     0.00060
C725        C  0.77178509  0.22451838  0.98566865     0.00060
C726        C  0.74882305  0.19701664  0.99889742     0.00060
C727        C  0.26690263  0.47028826  0.24933233     0.00060
C728        C  0.24509003  0.47234860  0.21794711     0.00060
C729        C  0.74401556  0.46654475  0.26471698     0.00060
C730        C  0.77054664  0.46323769  0.23764607     0.00060
C731        C  0.24363645  0.45369854  0.74995761     0.00060
C732        C  0.27456033  0.46228698  0.72931208     0.00060
C733        C  0.04352722  0.71638151  0.75139098     0.00060
C734        C  0.03628221  0.74427752  0.72635771     0.00060
C735        C  0.73693754  0.99976549  0.75160876     0.00060
C736        C  0.76561382  0.99225007  0.72725876     0.00060
C737        C  0.78826401  0.69789724  0.01296307     0.00060
C738        C  0.76176100  0.72355765  0.00395241     0.00060
C739        C  0.74545213  0.48364139  0.74285361     0.00060
C740        C  0.77116751  0.49508698  0.76898721     0.00060
C741        C  0.77124813  0.73732966  0.51484397     0.00060
C742        C  0.74550463  0.71121952  0.50305799     0.00060
C743        C  0.53178885  0.73475445  0.76978200     0.00060
C744        C  0.53085972  0.71251199  0.73873569     0.00060
C745        C  0.86773197  0.97750162  0.75280944    -0.21810
C746        C  0.88421562  0.00890843  0.73475898    -0.09850
C747        C  0.86061183  0.03812922  0.72170640     0.29010
C748        C  0.82141901  0.03399144  0.72327640    -0.21810
C749        C  0.80517378  0.00102505  0.73802636    -0.09860
C750        C  0.82846363  0.97353226  0.75446439     0.29010
F751        F  0.81342531  0.94129408  0.76877359    -0.20390
H752        H  0.88517982  0.95482117  0.76364469     0.17380
H753        H  0.80366282  0.05525295  0.71024765     0.17380
F754        F  0.87508606  0.06921048  0.70454392    -0.20380
C755        C  0.98250312  0.11702067  0.76070787    -0.21810
C756        C  0.01705178  0.09884871  0.75485936    -0.09850
C757        C  0.04996798  0.12094829  0.75085093     0.29010
C758        C  0.04759446  0.16051605  0.74935085    -0.21810
C759        C  0.01228440  0.17842721  0.75069628    -0.09860
C760        C  0.97977530  0.15621320  0.75711969     0.29010
F761        F  0.94472955  0.17149702  0.75474512    -0.20390
H762        H  0.95663276  0.10058089  0.76216978     0.17380
H763        H  0.07279158  0.17686328  0.74334180     0.17380
F764        F  0.08363825  0.10410622  0.74394444    -0.20380
C765        C  0.18288877  0.01871636  0.71898828    -0.21810
C766        C  0.19904587  0.98593319  0.73417607    -0.09850
C767        C  0.17567365  0.95797158  0.74983955     0.29010
C768        C  0.13646158  0.96254950  0.74928992    -0.21810
C769        C  0.12025893  0.99423200  0.73176056    -0.09860
C770        C  0.14377087  0.02269366  0.71727716     0.29010
F771        F  0.12886262  0.05301716  0.69915380    -0.20390
H772        H  0.20063534  0.04031077  0.70651760     0.17380
H773        H  0.11871457  0.93967293  0.75927594     0.17380
F774        F  0.19044522  0.92505091  0.76271496    -0.20380
C775        C  0.00083813  0.84330186  0.74236388    -0.21810
C776        C  0.03126990  0.86426944  0.72772683    -0.09850
C777        C  0.06572540  0.84546741  0.72093652     0.29010
C778        C  0.06832233  0.80634842  0.72536155    -0.21810
C779        C  0.03696316  0.78505889  0.73670141    -0.09860
C780        C  0.00358901  0.80398095  0.74679937     0.29010
F781        F  0.97255866  0.78414367  0.75743946    -0.20390
H782        H  0.97416127  0.85695514  0.74828118     0.17380
H783        H  0.09405743  0.79218597  0.71694758     0.17380
F784        F  0.09640197  0.86433456  0.70775328    -0.20380
C785        C  0.14022981  0.92994301  0.23425478    -0.21810
C786        C  0.12206304  0.96467899  0.24063416    -0.09850
C787        C  0.14414163  0.99784689  0.23944713     0.29010
C788        C  0.18370844  0.99582029  0.23732683    -0.21810
C789        C  0.20213979  0.96076675  0.23540316    -0.09860
C790        C  0.17985074  0.92795254  0.23120613     0.29010
F791        F  0.19654429  0.89357266  0.22858842    -0.20390
H792        H  0.12412795  0.90396874  0.23504377     0.17380
H793        H  0.20013658  0.02147981  0.24115501     0.17380
F794        F  0.12802178  0.03194263  0.24576582    -0.20380
C795        C  0.05327626  0.80102754  0.25042076    -0.21810
C796        C  0.01954597  0.78026799  0.24643552    -0.09850
C797        C  0.98483705  0.79926631  0.24962194     0.29010
C798        C  0.98407571  0.83782284  0.25869064    -0.21810
C799        C  0.01779926  0.85771684  0.26580010    -0.09860
C800        C  0.05245256  0.83929399  0.26075158     0.29010
F801        F  0.08537896  0.85757574  0.26820998    -0.20390
H802        H  0.08025021  0.78677412  0.24892644     0.17380
H803        H  0.95705140  0.85145132  0.26306568     0.17380
F804        F  0.95174779  0.77973512  0.24777440    -0.20380
C805        C  0.83283585  0.97713908  0.25919149    -0.21810
C806        C  0.81659368  0.94153305  0.25195397    -0.09850
C807        C  0.83959976  0.90928782  0.25570915     0.29010
C808        C  0.87671897  0.91242650  0.26979058    -0.21810
C809        C  0.89206832  0.94787121  0.27956416    -0.09860
C810        C  0.87008926  0.98041376  0.27267586     0.29010
F811        F  0.88360553  0.01536065  0.28139570    -0.20390
H812        H  0.81556200  0.00231411  0.25738744     0.17380
H813        H  0.89324509  0.88699920  0.27367800     0.17380
F814        F  0.82533313  0.87440972  0.24813927    -0.20380
C815        C  0.06032545  0.15334635  0.25846904    -0.21810
C816        C  0.02479489  0.17081262  0.25823267    -0.09850
C817        C  0.99207792  0.14879799  0.26180766     0.29010
C818        C  0.99510916  0.11005635  0.26797333    -0.21810
C819        C  0.03084778  0.09278314  0.27108679    -0.09860
C820        C  0.06347970  0.11463914  0.26499174     0.29010
F821        F  0.09844525  0.09918127  0.26694062    -0.20390
H822        H  0.08583419  0.17013761  0.25607760     0.17380
H823        H  0.96937535  0.09396374  0.27225603     0.17380
F824        F  0.95742965  0.16517733  0.26217957    -0.20380
C825        C  0.97307196  0.20476552  0.67622831    -0.21810
C826        C  0.00559510  0.21946620  0.69363047    -0.09850
C827        C  0.03844069  0.22411054  0.67164210     0.29010
C828        C  0.03875739  0.21281378  0.63339646    -0.21810
C829        C  0.00687807  0.19518512  0.61722758    -0.09860
C830        C  0.97395043  0.19169942  0.63907066     0.29010
F831        F  0.94290373  0.17373504  0.62533168    -0.20390
H832        H  0.94758414  0.20048185  0.69236201     0.17380
H833        H  0.06445799  0.21570432  0.61720892     0.17380
F834        F  0.07095134  0.23678382  0.68790251    -0.20380
C835        C  0.82487573  0.21295081  0.55619019    -0.21810
C836        C  0.80341586  0.20762065  0.52321435    -0.09850
C837        C  0.82167921  0.19729354  0.48959797     0.29010
C838        C  0.86049718  0.19022988  0.48962737    -0.21810
C839        C  0.88146224  0.19258137  0.52330042    -0.09860
C840        C  0.86361948  0.20534361  0.55637178     0.29010
F841        F  0.88336072  0.20945708  0.58909938    -0.20390
H842        H  0.81112902  0.22059536  0.58235281     0.17380
H843        H  0.87369205  0.18069809  0.46379162     0.17380
F844        F  0.80164895  0.19184454  0.45723594    -0.20380
C845        C  0.13605664  0.22120398  0.54469796    -0.21810
C846        C  0.11762383  0.22053180  0.50945853    -0.09850
C847        C  0.13873681  0.22864364  0.47691480     0.29010
C848        C  0.17821210  0.23249178  0.47929940    -0.21810
C849        C  0.19705693  0.22894708  0.51418410    -0.09860
C850        C  0.17536534  0.22597414  0.54713793     0.29010
F851        F  0.19259379  0.22353582  0.58136314    -0.20390
H852        H  0.12047301  0.21458769  0.57005811     0.17380
H853        H  0.19435774  0.23429233  0.45345888     0.17380
F854        F  0.12200550  0.22757656  0.44234507    -0.20380
C855        C  0.06055060  0.21745361  0.32201771    -0.21810
C856        C  0.02595607  0.22391095  0.30373255    -0.09850
C857        C  0.99279035  0.22528072  0.32523983     0.29010
C858        C  0.99366124  0.21474886  0.36326664    -0.21810
C859        C  0.02762444  0.20270232  0.38021706    -0.09860
C860        C  0.06148617  0.20611777  0.35967699     0.29010
F861        F  0.09521543  0.19560320  0.37471193    -0.20390
H862        H  0.08643104  0.21652738  0.30588501     0.17380
H863        H  0.96728904  0.21347653  0.37858536     0.17380
F864        F  0.95892405  0.23196821  0.30832787    -0.20380
C865        C  0.26264617  0.99686031  0.62632305    -0.21810
C866        C  0.24532707  0.96466664  0.61004549    -0.09850
C867        C  0.23456012  0.93484225  0.63374140     0.29010
C868        C  0.23811148  0.93847042  0.67296253    -0.21810
C869        C  0.25169652  0.97213598  0.68949568    -0.09860
C870        C  0.26544394  0.00082791  0.66581041     0.29010
F871        F  0.27781113  0.03406802  0.68072856    -0.20390
H872        H  0.27084044  0.02042501  0.60863109     0.17380
H873        H  0.22697868  0.91617922  0.69067281     0.17380
F874        F  0.21832967  0.90316492  0.61908208    -0.20380
C875        C  0.24086039  0.15563092  0.55048700    -0.21810
C876        C  0.24213854  0.17454337  0.51564033    -0.09850
C877        C  0.24002512  0.15344493  0.48215663     0.29010
C878        C  0.23523165  0.11425251  0.48361816    -0.21810
C879        C  0.23169883  0.09536222  0.51845498    -0.09860
C880        C  0.23535676  0.11636780  0.55199899     0.29010
F881        F  0.23338289  0.09910866  0.58610184    -0.20390
H882        H  0.24245897  0.17153147  0.57659177     0.17380
H883        H  0.23268838  0.09880668  0.45724796     0.17380
F884        F  0.24063363  0.17093415  0.44807827    -0.20380
C885        C  0.25246967  0.83925640  0.53434482    -0.21810
C886        C  0.25363930  0.85948605  0.50040406    -0.09850
C887        C  0.25926034  0.83994753  0.46633235     0.29010
C888        C  0.25960440  0.80046979  0.46588084    -0.21810
C889        C  0.25518174  0.78005283  0.49944807    -0.09860
C890        C  0.25421106  0.79972589  0.53402552     0.29010
F891        F  0.25323319  0.78087595  0.56728717    -0.20390
H892        H  0.24811803  0.85396617  0.56082287     0.17380
H893        H  0.26059639  0.78576928  0.43902187     0.17380
F894        F  0.26011332  0.85881397  0.43304196    -0.20380
C895        C  0.25187325  0.98724811  0.35278829    -0.21810
C896        C  0.24109356  0.95361113  0.37099720    -0.09850
C897        C  0.23404553  0.92095302  0.34904442     0.29010
C898        C  0.23630301  0.92253041  0.30990693    -0.21810
C899        C  0.24508513  0.95650140  0.29184976    -0.09860
C900        C  0.25355530  0.98880777  0.31338924     0.29010
F901        F  0.26171525  0.02212815  0.29631268    -0.20390
H902        H  0.25722523  0.01281017  0.36888672     0.17380
H903        H  0.22998061  0.89735968  0.29355658     0.17380
F904        F  0.22357554  0.88771413  0.36505878    -0.20380
C905        C  0.75741253  0.14493683  0.56139451    -0.21810
C906        C  0.74775252  0.16503946  0.52869527    -0.09850
C907        C  0.73944983  0.14506152  0.49536867     0.29010
C908        C  0.74684645  0.10632252  0.49330404    -0.21810
C909        C  0.76238032  0.08724836  0.52453918    -0.09860
C910        C  0.76485972  0.10629926  0.55946862     0.29010
F911        F  0.77762546  0.08858115  0.59102076    -0.20390
H912        H  0.76374575  0.15999172  0.58737906     0.17380
H913        H  0.74355651  0.09213406  0.46634032     0.17380
F914        F  0.72920595  0.16375969  0.46351776    -0.20380
C915        C  0.77878001  0.90758796  0.35519560    -0.21810
C916        C  0.77834083  0.94319229  0.37287474    -0.09850
C917        C  0.76543452  0.97459136  0.35207562     0.29010
C918        C  0.75772841  0.97108407  0.31347990    -0.21810
C919        C  0.76216860  0.93629059  0.29491169    -0.09860
C920        C  0.77005574  0.90401568  0.31669935     0.29010
F921        F  0.77276335  0.86956835  0.30005512    -0.20390
H922        H  0.78729519  0.88271408  0.37078650     0.17380
H923        H  0.75277601  0.99655231  0.29731844     0.17380
F924        F  0.76383922  0.00951557  0.36798664    -0.20380
C925        C  0.78271433  0.94764585  0.67532371    -0.21810
C926        C  0.76091857  0.97876308  0.68724090    -0.09850
C927        C  0.74283462  0.00074754  0.65951078     0.29010
C928        C  0.74826466  0.99283911  0.62096604    -0.21810
C929        C  0.77284581  0.96378618  0.60929553    -0.09860
C930        C  0.78922475  0.94060691  0.63697022     0.29010
F931        F  0.81314136  0.91238843  0.62704000    -0.20390
H932        H  0.79706529  0.93017059  0.69593402     0.17380
H933        H  0.73585523  0.01164188  0.60025075     0.17380
F934        F  0.72312493  0.03203278  0.66940368    -0.20380
C935        C  0.77231792  0.79390190  0.47453608    -0.21810
C936        C  0.76453764  0.77835661  0.51001047    -0.09850
C937        C  0.76034012  0.80254584  0.54135162     0.29010
C938        C  0.76724238  0.84134257  0.53764114    -0.21810
C939        C  0.77773014  0.85616804  0.50262880    -0.09860
C940        C  0.77894656  0.83254170  0.47082034     0.29010
F941        F  0.78939096  0.84639505  0.43674265    -0.20390
H942        H  0.77624989  0.77561672  0.45027986     0.17380
H943        H  0.76588216  0.85952502  0.56226134     0.17380
F944        F  0.75164463  0.78857701  0.57584255    -0.20380
C945        C  0.14407331  0.72355062  0.46552995    -0.21810
C946        C  0.12473863  0.73364134  0.49848225    -0.09850
C947        C  0.14516716  0.73953299  0.53201266     0.29010
C948        C  0.18451766  0.73650831  0.53224488    -0.21810
C949        C  0.20428893  0.72997445  0.49859511    -0.09860
C950        C  0.18362657  0.72251719  0.46529905     0.29010
F951        F  0.20157131  0.71805791  0.43188321    -0.20390
H952        H  0.12872942  0.71998292  0.43917106     0.17380
H953        H  0.19951711  0.74167013  0.55838727     0.17380
F954        F  0.12731987  0.75063328  0.56391362    -0.20380
C955        C  0.05790499  0.72987382  0.31012173    -0.21810
C956        C  0.02291206  0.72659430  0.29173756    -0.09850
C957        C  0.99014363  0.72003000  0.31292370     0.29010
C958        C  0.99202970  0.72087572  0.35232191    -0.21810
C959        C  0.02644528  0.72898960  0.37070214    -0.09860
C960        C  0.05978956  0.73136864  0.34934314     0.29010
F961        F  0.09384236  0.73784876  0.36612526    -0.20390
H962        H  0.08344713  0.73437233  0.29402109     0.17380
H963        H  0.96606140  0.71857540  0.36821158     0.17380
F964        F  0.95597860  0.71616919  0.29569872    -0.20380
C965        C  0.99605383  0.75049227  0.66978805    -0.21810
C966        C  0.02964224  0.73688959  0.68576266    -0.09850
C967        C  0.05905826  0.72499997  0.66201881     0.29010
C968        C  0.05545906  0.72906761  0.62279868    -0.21810
C969        C  0.02313003  0.74609517  0.60745502    -0.09860
C970        C  0.99300498  0.75572577  0.63109103     0.29010
F971        F  0.96122915  0.77195145  0.61704120    -0.20390
H972        H  0.97304482  0.75965939  0.68757055     0.17380
H973        H  0.07847947  0.72071399  0.60472766     0.17380
F974        F  0.09216730  0.71242005  0.67680185    -0.20380
C975        C  0.86942359  0.74354613  0.55469049    -0.21810
C976        C  0.89033567  0.73596595  0.52207740    -0.09850
C977        C  0.87178669  0.71983600  0.49039598     0.29010
C978        C  0.83265316  0.71622134  0.48989393    -0.21810
C979        C  0.81145706  0.72764693  0.52103266    -0.09860
C980        C  0.83021783  0.73889886  0.55437727     0.29010
F981        F  0.81055626  0.74746775  0.58594002    -0.20390
H982        H  0.88313735  0.75470489  0.57980613     0.17380
H983        H  0.81868940  0.70770589  0.46389916     0.17380
F984        F  0.89077714  0.71073522  0.45845644    -0.20380
C985        C  0.74015139  0.09724711  0.96898864    -0.21810
C986        C  0.73994916  0.07920396  0.00428341    -0.09850
C987        C  0.75234722  0.09901769  0.03632570     0.29010
C988        C  0.76164080  0.13741757  0.03335900    -0.21810
C989        C  0.75788427  0.15634956  0.99861213    -0.09860
C990        C  0.74880909  0.13555155  0.96611763     0.29010
F991        F  0.74432367  0.15315740  0.93235835    -0.20390
H992        H  0.73181823  0.08222347  0.94367739     0.17380
H993        H  0.76887138  0.15305008  0.05871743     0.17380
F994        F  0.75418779  0.08173962  0.07042156    -0.20380
C995        C  0.76052573  0.82301794  0.03851613    -0.21810
C996        C  0.75906102  0.84315032  0.00433218    -0.09850
C997        C  0.76784390  0.82426401  0.97049854     0.29010
C998        C  0.77319192  0.78502186  0.97063625    -0.21810
C999        C  0.77006986  0.76460691  0.00442725    -0.09860
C1000       C  0.76585824  0.78409820  0.03858984     0.29010
F1001       F  0.76304531  0.76496563  0.07165829    -0.20390
H1002       H  0.75492908  0.83698366  0.06516318     0.17380
H1003       H  0.77709956  0.77032679  0.94412688     0.17380
F1004       F  0.76796044  0.84294118  0.93706941    -0.20380
C1005       C  0.73671235  0.03227846  0.85419640    -0.21810
C1006       C  0.73204512  0.99733896  0.87251738    -0.09850
C1007       C  0.73486981  0.96385920  0.85097587     0.29010
C1008       C  0.74029840  0.96539756  0.81208137    -0.21810
C1009       C  0.74329101  0.00009909  0.79337395    -0.09860
C1010       C  0.74271681  0.03367575  0.81490615     0.29010
F1011       F  0.74694733  0.06771815  0.79789014    -0.20390
H1012       H  0.73547027  0.05837627  0.87019629     0.17380
H1013       H  0.73977385  0.93926379  0.79603718     0.17380
F1014       F  0.72989979  0.92938515  0.86707333    -0.20380
C1015       C  0.77764715  0.93239723  0.12284237    -0.21810
C1016       C  0.75977357  0.96453021  0.10776896    -0.09850
C1017       C  0.74737631  0.99285054  0.13265104     0.29010
C1018       C  0.74939211  0.98741543  0.17166202    -0.21810
C1019       C  0.76281618  0.95327558  0.18672602    -0.09860
C1020       C  0.77888948  0.92656940  0.16213164     0.29010
F1021       F  0.79145966  0.89299659  0.17562837    -0.20390
H1022       H  0.78655082  0.90980438  0.10424471     0.17380
H1023       H  0.73677670  0.00833698  0.19004600     0.17380
F1024       F  0.72928663  0.02385909  0.11920214    -0.20380
C1025       C  0.28431055  0.83877143  0.01974013    -0.21810
C1026       C  0.27406454  0.85880193  0.98719131    -0.09850
C1027       C  0.26200513  0.83926847  0.95486030     0.29010
C1028       C  0.26364160  0.79987467  0.95399541    -0.21810
C1029       C  0.27766570  0.78017820  0.98536368    -0.09860
C1030       C  0.28628374  0.79958441  0.01885589     0.29010
F1031       F  0.29929559  0.78078281  0.04968058    -0.20390
H1032       H  0.29416324  0.85359510  0.04476026     0.17380
H1033       H  0.25649461  0.78501208  0.92816639     0.17380
F1034       F  0.25140142  0.85827269  0.92346277    -0.20380
C1035       C  0.28053196  0.11882246  0.93819037    -0.21810
C1036       C  0.27316069  0.09501867  0.96892831    -0.09850
C1037       C  0.25818058  0.11077630  0.00232554     0.29010
C1038       C  0.25442490  0.14983885  0.00593324    -0.21810
C1039       C  0.26515920  0.17363598  0.97638557    -0.09860
C1040       C  0.27657740  0.15787684  0.94186838     0.29010
F1041       F  0.28616857  0.18042967  0.91248208    -0.20390
H1042       H  0.29141720  0.10748171  0.91200153     0.17380
H1043       H  0.24574866  0.16163338  0.03275775     0.17380
F1044       F  0.24917114  0.08881272  0.03236979    -0.20380
C1045       C  0.23576340  0.00165818  0.86069455    -0.21810
C1046       C  0.24606599  0.96691720  0.87704251    -0.09850
C1047       C  0.25317602  0.93597514  0.85309574     0.29010
C1048       C  0.25527894  0.94099460  0.81420450    -0.21810
C1049       C  0.25001171  0.97675494  0.79829422    -0.09860
C1050       C  0.23799446  0.00671070  0.82139459     0.29010
F1051       F  0.23221825  0.04154550  0.80651683    -0.20390
H1052       H  0.23109148  0.02614609  0.87848134     0.17380
H1053       H  0.26449409  0.91760681  0.79674707     0.17380
F1054       F  0.26460548  0.90247073  0.86759112    -0.20380
C1055       C  0.27201524  0.98498934  0.12664962    -0.21810
C1056       C  0.28772110  0.95286233  0.10920924    -0.09850
C1057       C  0.29337142  0.92005068  0.13090489     0.29010
C1058       C  0.28512672  0.92017811  0.16938518    -0.21810
C1059       C  0.27153847  0.95290740  0.18707679    -0.09860
C1060       C  0.26424310  0.98515173  0.16530820     0.29010
F1061       F  0.25210122  0.01752520  0.18184716    -0.20390
H1062       H  0.26712999  0.01061541  0.11068950     0.17380
H1063       H  0.29103751  0.89508158  0.18576040     0.17380
F1064       F  0.30821118  0.88827195  0.11546803    -0.20380
C1065       C  0.52566376  0.11081359  0.21841374    -0.21810
C1066       C  0.49137441  0.09195143  0.22504267    -0.09850
C1067       C  0.45994508  0.11274927  0.23743711     0.29010
C1068       C  0.46221379  0.15209284  0.24045713    -0.21810
C1069       C  0.49566666  0.17096201  0.23087276    -0.09860
C1070       C  0.52776356  0.15005746  0.22102246     0.29010
F1071       F  0.56043064  0.16783556  0.21156553    -0.20390
H1072       H  0.55028288  0.09538759  0.20896681     0.17380
H1073       H  0.43726194  0.16796870  0.24803167     0.17380
F1074       F  0.42684283  0.09527671  0.24562665    -0.20380
C1075       C  0.45726745  0.83765162  0.22994834    -0.21810
C1076       C  0.49212999  0.85616149  0.23322993    -0.09850
C1077       C  0.52352951  0.83652889  0.24775670     0.29010
C1078       C  0.52096441  0.79764547  0.25457675    -0.21810
C1079       C  0.48688903  0.77832036  0.24771879    -0.09860
C1080       C  0.45440193  0.79915987  0.23807662     0.29010
F1081       F  0.42053617  0.78161702  0.23334047    -0.20390
H1082       H  0.43277754  0.85253915  0.21917485     0.17380
H1083       H  0.54637004  0.78208076  0.26161177     0.17380
F1084       F  0.55768029  0.85393277  0.25107457    -0.20380
C1085       C  0.37411405  0.92836267  0.25194826    -0.21810
C1086       C  0.39217595  0.96367491  0.24844387    -0.09850
C1087       C  0.36965456  0.99638851  0.24796786     0.29010
C1088       C  0.33021083  0.99353490  0.24578750    -0.21810
C1089       C  0.31233543  0.95808776  0.24505717    -0.09860
C1090       C  0.33442481  0.92557918  0.25091103     0.29010
F1091       F  0.31789848  0.89091382  0.25175760    -0.20390
H1092       H  0.39070611  0.90269785  0.25157329     0.17380
H1093       H  0.31385108  0.01891510  0.24088550     0.17380
F1094       F  0.38584598  0.03085289  0.24343225    -0.20380
C1095       C  0.64938368  0.91066346  0.20422775    -0.21810
C1096       C  0.62807673  0.94198915  0.21617518    -0.09850
C1097       C  0.64705250  0.97086333  0.23661900     0.29010
C1098       C  0.68636673  0.96938295  0.24263067    -0.21810
C1099       C  0.70782131  0.93898798  0.22898659    -0.09860
C1100       C  0.68867765  0.90923475  0.21036500     0.29010
F1101       F  0.70841561  0.87966817  0.19614059    -0.20390
H1102       H  0.63589993  0.88785548  0.18867636     0.17380
H1103       H  0.70032899  0.99329241  0.25582369     0.17380
F1104       F  0.62800310  0.00146311  0.24956520    -0.20380
C1105       C  0.68370198  0.20843114  0.97636779    -0.21810
C1106       C  0.70871877  0.20493451  0.00695710    -0.09850
C1107       C  0.69448211  0.19981904  0.04343704     0.29010
C1108       C  0.65604157  0.19307589  0.04841140    -0.21810
C1109       C  0.63146074  0.19192916  0.01710599    -0.09860
C1110       C  0.64516860  0.20215282  0.98129526     0.29010
F1111       F  0.62216441  0.20284804  0.95046580    -0.20390
H1112       H  0.69443977  0.21269939  0.94811126     0.17380
H1113       H  0.64586547  0.18679200  0.07650327     0.17380
F1114       F  0.71799623  0.19874741  0.07382235    -0.20380
C1115       C  0.33460304  0.23559990  0.95763613    -0.21810
C1116       C  0.31326035  0.22401104  0.98879922    -0.09850
C1117       C  0.33193560  0.21274910  0.02203008     0.29010
C1118       C  0.37113494  0.20848239  0.02237989    -0.21810
C1119       C  0.39211948  0.21592936  0.98981966    -0.09860
C1120       C  0.37399083  0.23153010  0.95807818     0.29010
F1121       F  0.39369378  0.23818671  0.92599569    -0.20390
H1122       H  0.32056354  0.24429530  0.93183367     0.17380
H1123       H  0.38465401  0.19587349  0.04682180     0.17380
F1124       F  0.31185266  0.20170740  0.05265262    -0.20380
C1125       C  0.46145545  0.19786992  0.84345723    -0.21810
C1126       C  0.49325166  0.19151548  0.86649913    -0.09850
C1127       C  0.52958589  0.19772588  0.85173242     0.29010
C1128       C  0.53377933  0.20681628  0.81350884    -0.21810
C1129       C  0.50185853  0.21019144  0.79001881    -0.09860
C1130       C  0.46565961  0.20713585  0.80558855     0.29010
F1131       F  0.43435260  0.21012906  0.78342719    -0.20390
H1132       H  0.43315756  0.19407363  0.85439756     0.17380
H1133       H  0.56187679  0.20918203  0.80182736     0.17380
F1134       F  0.56094822  0.19234759  0.87332169    -0.20380
C1135       C  0.46354654  0.20882390  0.12363623    -0.21810
C1136       C  0.49785911  0.21639681  0.10573938    -0.09850
C1137       C  0.52809524  0.23221136  0.12615171     0.29010
C1138       C  0.52570343  0.23536905  0.16524468    -0.21810
C1139       C  0.49296619  0.22321519  0.18378511    -0.09860
C1140       C  0.46091859  0.21258133  0.16263796     0.29010
F1141       F  0.42862212  0.20164440  0.18005193    -0.20390
H1142       H  0.44023431  0.19621193  0.10801878     0.17380
H1143       H  0.55081442  0.24297924  0.18113975     0.17380
F1144       F  0.56170497  0.23902248  0.10910059    -0.20380
C1145       C  0.67871849  0.96235072  0.73806603    -0.21810
C1146       C  0.69634922  0.99783736  0.74114646    -0.09850
C1147       C  0.67397802  0.02997919  0.74778520     0.29010
C1148       C  0.63583561  0.02596651  0.75693399    -0.21810
C1149       C  0.61918786  0.99006323  0.75772895    -0.09860
C1150       C  0.64018354  0.95846705  0.74605649     0.29010
F1151       F  0.62461854  0.92332746  0.74684960    -0.20390
H1152       H  0.69553886  0.93721015  0.73359479     0.17380
H1153       H  0.61996070  0.05054207  0.76573218     0.17380
F1154       F  0.68998321  0.06485879  0.74946117    -0.20380
C1155       C  0.36843474  0.96112224  0.75548015    -0.21810
C1156       C  0.38384748  0.99429986  0.77175534    -0.09850
C1157       C  0.35963141  0.02510681  0.77835812     0.29010
C1158       C  0.32094912  0.02192956  0.77060749    -0.21810
C1159       C  0.30541558  0.98821939  0.75620702    -0.09860
C1160       C  0.32956727  0.95800091  0.74792163     0.29010
F1161       F  0.31529116  0.92470523  0.73497089    -0.20390
H1162       H  0.38625329  0.93694882  0.74984054     0.17380
H1163       H  0.30263310  0.04529818  0.77782558     0.17380
F1164       F  0.37277130  0.05767720  0.79411449    -0.20380
C1165       C  0.54335061  0.11057898  0.74126481    -0.21810
C1166       C  0.50976194  0.08931310  0.74099944    -0.09850
C1167       C  0.47563873  0.10788745  0.73225183     0.29010
C1168       C  0.47479288  0.14752336  0.72852245    -0.21810
C1169       C  0.50793583  0.16916921  0.73326729    -0.09380
C1170       C  0.54256224  0.14998127  0.73718698     0.29010
F1171       F  0.57519803  0.16977964  0.74203489    -0.20390
H1172       H  0.56983688  0.09715922  0.74866625     0.17380
H1173       H  0.44770870  0.16153469  0.72623581     0.17380
F1174       F  0.44244873  0.08851431  0.73285852    -0.20380
C1175       C  0.56523829  0.83507770  0.78590554    -0.21810
C1176       C  0.53187976  0.85570871  0.77977561    -0.09850
C1177       C  0.49977053  0.83653448  0.76526262     0.29010
C1178       C  0.50062261  0.79741500  0.75929343    -0.21810
C1179       C  0.53331218  0.77671973  0.76758782    -0.09860
C1180       C  0.56595786  0.79597611  0.77994083     0.29010
F1181       F  0.59819880  0.77668009  0.78758000    -0.20390
H1182       H  0.59050863  0.84897959  0.79651648     0.17380
H1183       H  0.47517751  0.78298916  0.74990686     0.17380
F1184       F  0.46698096  0.85514729  0.75824324    -0.20380
C1185       C  0.34869936  0.71386862  0.00693584    -0.21810
C1186       C  0.32772967  0.73087645  0.97779731    -0.09850
C1187       C  0.34750186  0.74809095  0.94787355     0.29010
C1188       C  0.38688268  0.75185541  0.94921396    -0.21810
C1189       C  0.40759262  0.73735371  0.97968298    -0.09860
C1190       C  0.38833301  0.71663714  0.00769226     0.29010
F1191       F  0.40738202  0.70249864  0.03788972    -0.20390
H1192       H  0.33436815  0.70121697  0.03071912     0.17380
H1193       H  0.40107831  0.76760268  0.92722736     0.17380
F1194       F  0.32847238  0.76369651  0.91845068    -0.20380
C1195       C  0.66621580  0.72325859  0.96053175    -0.21810
C1196       C  0.64368342  0.72354006  0.99298819    -0.09850
C1197       C  0.65996724  0.71435290  0.02819197     0.29010
C1198       C  0.69900284  0.70984662  0.03128577    -0.21810
C1199       C  0.72168361  0.71392996  0.99934737    -0.09860
C1200       C  0.70500913  0.71830667  0.96364483     0.29010
F1201       F  0.72660162  0.72095706  0.93220987    -0.20390
H1202       H  0.65416258  0.72914226  0.93296841     0.17380
H1203       H  0.71178514  0.70642108  0.05893501     0.17380
F1204       F  0.63890361  0.71331517  0.06006872    -0.20380
C1205       C  0.52330354  0.73534757  0.14014046    -0.21810
C1206       C  0.48960637  0.73888941  0.11918043    -0.09850
C1207       C  0.45479229  0.73455206  0.13751543     0.29010
C1208       C  0.45399049  0.72914855  0.17670637    -0.21810
C1209       C  0.48779548  0.72910080  0.19781083    -0.09860
C1210       C  0.52247680  0.73090961  0.17904180     0.29010
F1211       F  0.55554867  0.73198187  0.19873000    -0.20390
H1212       H  0.55059079  0.73841490  0.12671401     0.17380
H1213       H  0.42701752  0.72712158  0.19075960     0.17380
F1214       F  0.42180753  0.73634081  0.11783400    -0.20380
C1215       C  0.49031720  0.72441588  0.86530598    -0.21810
C1216       C  0.52303906  0.71877842  0.88692304    -0.09850
C1217       C  0.55691931  0.70872588  0.86897728     0.29010
C1218       C  0.55895878  0.70910910  0.82953700    -0.21810
C1219       C  0.52717847  0.71927242  0.80811518    -0.09860
C1220       C  0.49225351  0.72440954  0.82605751     0.29010
F1221       F  0.46102760  0.73393575  0.80576853    -0.20390
H1222       H  0.46420290  0.73272072  0.87879399     0.17380
H1223       H  0.58607273  0.70536446  0.81600813     0.17380
F1224       F  0.58914597  0.70401840  0.88943477    -0.20380
C1225       C  0.84994728  0.72212257  0.03642318    -0.21810
C1226       C  0.82804236  0.70724027  0.00696054    -0.09850
C1227       C  0.84517938  0.69415858  0.97386809     0.29010
C1228       C  0.88420238  0.69116862  0.97240602    -0.21810
C1229       C  0.90603295  0.70121808  0.00396607    -0.09860
C1230       C  0.88909904  0.71922495  0.03489648     0.29010
F1231       F  0.91013199  0.73302107  0.06387061    -0.20390
H1232       H  0.83671192  0.73319830  0.06161297     0.17380
H1233       H  0.89703926  0.67808512  0.94796134     0.17380
F1234       F  0.82396070  0.68095219  0.94455005    -0.20380
C1235       C  0.15812792  0.73054528  0.96023086    -0.21810
C1236       C  0.13927174  0.72886654  0.99490472    -0.09850
C1237       C  0.16063013  0.73011956  0.02851569     0.29010
C1238       C  0.20018911  0.72914781  0.02726174    -0.21810
C1239       C  0.21874353  0.72584906  0.99250735    -0.09860
C1240       C  0.19754947  0.72825404  0.95893224     0.29010
F1241       F  0.21465083  0.72435768  0.92495786    -0.20390
H1242       H  0.14224068  0.72851308  0.93408122     0.17380
H1243       H  0.21611418  0.72798809  0.05343476     0.17380
F1244       F  0.14314957  0.72796914  0.06243984    -0.20380
C1245       C  0.01346775  0.70766893  0.85082452    -0.21810
C1246       C  0.04863588  0.70415804  0.86919415    -0.09850
C1247       C  0.08176576  0.71358107  0.84956887     0.29010
C1248       C  0.07965750  0.72343869  0.81138036    -0.21810
C1249       C  0.04470423  0.72326262  0.79241615    -0.09860
C1250       C  0.01146474  0.71692664  0.81279966     0.29010
F1251       F  0.97734829  0.71563458  0.79502805    -0.20390
H1252       H  0.98739070  0.70104391  0.86532535     0.17380
H1253       H  0.10551135  0.72828484  0.79592386     0.17380
F1254       F  0.11609535  0.71212251  0.86677042    -0.20380
C1255       C  0.05880229  0.71738643  0.12583306    -0.21810
C1256       C  0.02574816  0.71047124  0.10478811    -0.09850
C1257       C  0.99061172  0.71234362  0.12291718     0.29010
C1258       C  0.98845295  0.71984159  0.16141024    -0.21810
C1259       C  0.02138798  0.72346396  0.18312992    -0.09860
C1260       C  0.05667026  0.72386236  0.16493651     0.29010
F1261       F  0.08906801  0.72653638  0.18552686    -0.20390
H1262       H  0.08618825  0.71504864  0.11259919     0.17380
H1263       H  0.96113748  0.71835754  0.17499470     0.17380
F1264       F  0.95861877  0.70180311  0.10464959    -0.20380
C1265       C  0.83701029  0.20468282  0.00222374    -0.21810
C1266       C  0.81194185  0.21874228  0.97505737    -0.09850
C1267       C  0.82676471  0.23744501  0.94323176     0.29010
C1268       C  0.86541366  0.24585555  0.94114898    -0.21810
C1269       C  0.89001779  0.23501806  0.97033097    -0.09860
C1270       C  0.87560252  0.21233083  0.99990355     0.29010
F1271       F  0.89808710  0.19994361  0.02849814    -0.20390
H1272       H  0.82637883  0.19079530  0.02732115     0.17380
H1273       H  0.87573729  0.26237365  0.91755821     0.17380
F1274       F  0.80350193  0.24991742  0.91537963    -0.20380
C1275       C  0.04174271  0.26791469  0.81577822    -0.21810
C1276       C  0.01214291  0.24588387  0.80028240    -0.09850
C1277       C  0.98617965  0.22884340  0.82475875     0.29010
C1278       C  0.99010026  0.23314696  0.86356537    -0.21810
C1279       C  0.01853607  0.25638887  0.87900464    -0.09860
C1280       C  0.04461430  0.27371734  0.85487370     0.29010
F1281       F  0.07212618  0.29672595  0.86891463    -0.20390
H1282       H  0.06142937  0.28227220  0.79736398     0.17380
H1283       H  0.96887054  0.22044966  0.88151737     0.17380
F1284       F  0.95464251  0.21152322  0.81154807    -0.20380
C1285       C  0.14097172  0.22856114  0.97057874    -0.21810
C1286       C  0.12609430  0.23283083  0.00707727    -0.09850
C1287       C  0.15070325  0.23048647  0.03837282     0.29010
C1288       C  0.18961590  0.22769077  0.03307682    -0.21810
C1289       C  0.20480510  0.22778217  0.99666111    -0.09860
C1290       C  0.18021594  0.22635589  0.96533201     0.29010
F1291       F  0.19424428  0.22598120  0.92976295    -0.20390
H1292       H  0.12256244  0.23010522  0.94606361     0.17380
H1293       H  0.20810484  0.22819591  0.05753931     0.17380
F1294       F  0.13734921  0.23326828  0.07413386    -0.20380
C1295       C  0.97426926  0.22841592  0.17843644    -0.21810
C1296       C  0.00918741  0.22186341  0.19617333    -0.09850
C1297       C  0.03979519  0.20890359  0.17470663     0.29010
C1298       C  0.03654492  0.20673764  0.13551656    -0.21810
C1299       C  0.00331035  0.21867556  0.11750830    -0.09860
C1300       C  0.97130952  0.22697995  0.13914433     0.29010
F1301       F  0.93903536  0.23906542  0.12214913    -0.20390
H1302       H  0.95038533  0.23820783  0.19469970     0.17380
H1303       H  0.06171660  0.20125839  0.11911186     0.17380
F1304       F  0.07416742  0.20334643  0.19091091    -0.20380
C1305       C  0.82935001  0.49625646  0.25745667    -0.21810
C1306       C  0.81089892  0.46232452  0.24814339    -0.09850
C1307       C  0.83187316  0.42913276  0.24346584     0.29010
C1308       C  0.87123728  0.43095563  0.24361214    -0.21810
C1309       C  0.88965272  0.46580951  0.24865407    -0.09860
C1310       C  0.86868344  0.49796193  0.25817068     0.29010
F1311       F  0.88595640  0.53213917  0.26195323    -0.20390
H1312       H  0.81341982  0.52212993  0.26060611     0.17380
H1313       H  0.88715651  0.40614127  0.23549246     0.17380
F1314       F  0.81441658  0.39584186  0.23534119    -0.20380
C1315       C  0.14465864  0.50709704  0.22362468    -0.21810
C1316       C  0.12588107  0.47691682  0.20585975    -0.09850
C1317       C  0.14561706  0.44398234  0.19649257     0.29010
C1318       C  0.18420873  0.44185370  0.20330943    -0.21810
C1319       C  0.20361191  0.47257431  0.21933206    -0.09860
C1320       C  0.18366351  0.50511545  0.23009588     0.29010
F1321       F  0.20211061  0.53546313  0.24491686    -0.20390
H1322       H  0.12933272  0.53234947  0.23150368     0.17380
H1323       H  0.19924445  0.41661403  0.19487883     0.17380
F1324       F  0.12759253  0.41397117  0.18046257    -0.20380
C1325       C  0.03520189  0.60784583  0.22890526    -0.21810
C1326       C  0.99784253  0.59422698  0.22598257    -0.09850
C1327       C  0.96776349  0.62006211  0.22836718     0.29010
C1328       C  0.97512986  0.65878675  0.23085536    -0.21810
C1329       C  0.01240849  0.67242009  0.23083845    -0.09860
C1330       C  0.04247073  0.64670368  0.23103314     0.29010
F1331       F  0.07876430  0.65926022  0.23115503    -0.20390
H1332       H  0.05888413  0.58858536  0.22729259     0.17380
H1333       H  0.95163613  0.67833313  0.23060429     0.17380
F1334       F  0.93125501  0.60811210  0.22686743    -0.20380
C1335       C  0.98611272  0.29975322  0.24215351    -0.21810
C1336       C  0.01871806  0.27761058  0.23899738    -0.09850
C1337       C  0.05337932  0.29519657  0.23081595     0.29010
C1338       C  0.05491303  0.33400413  0.22348205    -0.21810
C1339       C  0.02200242  0.35600823  0.22482838    -0.09860
C1340       C  0.98768447  0.33873919  0.23545322     0.29010
F1341       F  0.95511708  0.35890588  0.23646815    -0.20390
H1342       H  0.95906023  0.28649562  0.24768025     0.17380
H1343       H  0.08166415  0.34668913  0.21571213     0.17380
F1344       F  0.08532474  0.27434333  0.22752520    -0.20380
C1345       C  0.23065794  0.41620988  0.84921523    -0.21810
C1346       C  0.22503823  0.45022171  0.86904029    -0.09850
C1347       C  0.23083801  0.48475965  0.84989405     0.29010
C1348       C  0.24084598  0.48509569  0.81192947    -0.21810
C1349       C  0.24511841  0.45132437  0.79181639    -0.09860
C1350       C  0.24080572  0.41672172  0.81087977     0.29010
F1351       F  0.24518940  0.38354998  0.79212900    -0.20390
H1352       H  0.22689560  0.38932143  0.86320869     0.17380
H1353       H  0.24299507  0.51199124  0.79746554     0.17380
F1354       F  0.22497195  0.51852123  0.86723112    -0.20380
C1355       C  0.27138625  0.50611023  0.12050985    -0.21810
C1356       C  0.27245882  0.47169916  0.10064946    -0.09850
C1357       C  0.27415370  0.43783820  0.12135488     0.29010
C1358       C  0.26937398  0.43833236  0.16064132    -0.21810
C1359       C  0.26182574  0.47249284  0.17936986    -0.09860
C1360       C  0.26450021  0.50654544  0.15931043     0.29010
F1361       F  0.25629692  0.53991011  0.17635936    -0.20390
H1362       H  0.26911272  0.53249300  0.10516624     0.17380
H1363       H  0.26765365  0.41181251  0.17578736     0.17380
F1364       F  0.27464407  0.40410807  0.10304878    -0.20380
C1365       C  0.26144155  0.61076254  0.96811048    -0.21810
C1366       C  0.25139428  0.59538766  0.00331972    -0.09850
C1367       C  0.25234437  0.61899853  0.03545085     0.29010
C1368       C  0.25975205  0.65754517  0.03163452    -0.21810
C1369       C  0.26600179  0.67334892  0.99596147    -0.09860
C1370       C  0.26859813  0.64952506  0.96441241     0.29010
F1371       F  0.27487010  0.66419490  0.92963489    -0.20390
H1372       H  0.26161777  0.59323215  0.94300351     0.17380
H1373       H  0.25799093  0.67556043  0.05632647     0.17380
F1374       F  0.24385296  0.60553129  0.07026696    -0.20380
C1375       C  0.25145343  0.30008061  0.96036083    -0.21810
C1376       C  0.25293966  0.27964484  0.99407903    -0.09850
C1377       C  0.25424781  0.29890997  0.02877620     0.29010
C1378       C  0.24978207  0.33815660  0.02967315    -0.21810
C1379       C  0.24554965  0.35829417  0.99591366    -0.09860
C1380       C  0.24798407  0.33923485  0.96118165     0.29010
F1381       F  0.24279025  0.35789304  0.92816048    -0.20390
H1382       H  0.25009836  0.28541696  0.93345944     0.17380
H1383       H  0.24755949  0.35249837  0.05657625     0.17380
F1384       F  0.25748578  0.27960839  0.06167346    -0.20380
C1385       C  0.18194881  0.42332520  0.73729602    -0.21810
C1386       C  0.20486090  0.45559943  0.73428462    -0.09850
C1387       C  0.18811374  0.49081650  0.72696346     0.29010
C1388       C  0.14880727  0.49426846  0.72812508    -0.21810
C1389       C  0.12642842  0.46287048  0.73744190    -0.09860
C1390       C  0.14285856  0.42695053  0.73953970     0.29010
F1391       F  0.12168596  0.39632072  0.74891571    -0.20390
H1392       H  0.19447314  0.39592467  0.74241952     0.17380
H1393       H  0.13643706  0.52224510  0.72705904     0.17380
F1394       F  0.20966170  0.52251646  0.72415429    -0.20380
C1395       C  0.01934208  0.31131952  0.73160839    -0.21810
C1396       C  0.99237480  0.28651383  0.74645799    -0.09850
C1397       C  0.95898161  0.30178436  0.76169880     0.29010
C1398       C  0.95495387  0.34093178  0.76632762    -0.21810
C1399       C  0.98380147  0.36576450  0.75515629    -0.09860
C1400       C  0.01510380  0.35054189  0.73554451     0.29010
F1401       F  0.04353095  0.37312282  0.72317455    -0.20390
H1402       H  0.04555032  0.30036131  0.72046355     0.17380
H1403       H  0.93027439  0.35157599  0.78077775     0.17380
F1404       F  0.93195651  0.27857679  0.77585593    -0.20380
C1405       C  0.00944849  0.65609607  0.73802776    -0.21810
C1406       C  0.04391892  0.67557887  0.74139448    -0.09850
C1407       C  0.07715822  0.65490613  0.74791985     0.29010
C1408       C  0.07532604  0.61625202  0.75559860    -0.21810
C1409       C  0.04035163  0.59734870  0.75636613    -0.09860
C1410       C  0.00753486  0.61724443  0.74536422     0.29010
F1411       F  0.97315705  0.60004098  0.74460821    -0.20390
H1412       H  0.98349391  0.67158485  0.73323380     0.17380
H1413       H  0.10119584  0.60151839  0.76268256     0.17380
F1414       F  0.11110586  0.67277945  0.75019109    -0.20380
C1415       C  0.83361603  0.52390960  0.75146649    -0.21810
C1416       C  0.81236729  0.49211361  0.76226922    -0.09850
C1417       C  0.83104745  0.46075822  0.77788969     0.29010
C1418       C  0.86963180  0.46243362  0.78560568    -0.21810
C1419       C  0.89048983  0.49495783  0.77708352    -0.09860
C1420       C  0.87278530  0.52509229  0.75828317     0.29010
F1421       F  0.89297818  0.55608949  0.74812251    -0.20390
H1422       H  0.81954796  0.54852188  0.73999659     0.17380
H1423       H  0.88321004  0.43840796  0.79884711     0.17380
F1424       F  0.81127541  0.42962871  0.78858094    -0.20380
C1425       C  0.77268478  0.31691467  0.03587069    -0.21810
C1426       C  0.76625845  0.34192075  0.00578968    -0.09850
C1427       C  0.75264865  0.32768195  0.97105525     0.29010
C1428       C  0.75047409  0.28866385  0.96535323    -0.21810
C1429       C  0.76213359  0.26407213  0.99402535    -0.09860
C1430       C  0.77092573  0.27821856  0.02998476     0.29010
F1431       F  0.78131211  0.25461486  0.05837747    -0.20390
H1432       H  0.78200816  0.32714189  0.06326297     0.17380
H1433       H  0.74233809  0.27774685  0.93788358     0.17380
F1434       F  0.74469064  0.35104950  0.94172846    -0.20380
C1435       C  0.80322521  0.60020132  0.05193039    -0.21810
C1436       C  0.78666608  0.57795655  0.02358480    -0.09850
C1437       C  0.76443679  0.59545800  0.99542078     0.29010
C1438       C  0.76201229  0.63478692  0.99373162    -0.21810
C1439       C  0.78058894  0.65726192  0.02073000    -0.09860
C1440       C  0.79953718  0.63950856  0.05103219     0.29010
F1441       F  0.81667336  0.66034227  0.07848280    -0.20390
H1442       H  0.82025042  0.58726404  0.07386833     0.17380
H1443       H  0.74826271  0.64755214  0.96955504     0.17380
F1444       F  0.74839772  0.57489100  0.96708176    -0.20380
C1445       C  0.75597709  0.43189078  0.13624599    -0.21810
C1446       C  0.76768315  0.46436737  0.11688677    -0.09850
C1447       C  0.77408780  0.49794701  0.13725905     0.29010
C1448       C  0.77081083  0.49833393  0.17666117    -0.21810
C1449       C  0.76204283  0.46505571  0.19640248    -0.09860
C1450       C  0.75383591  0.43193986  0.17572723     0.29010
F1451       F  0.74792152  0.39864192  0.19361996    -0.20390
H1452       H  0.75223237  0.40545251  0.12111330     0.17380
H1453       H  0.77804941  0.52389971  0.19203669     0.17380
F1454       F  0.78625064  0.52955536  0.11929884    -0.20380
C1455       C  0.75174018  0.47503916  0.87041958    -0.21810
C1456       C  0.77285216  0.50442893  0.88746473    -0.09850
C1457       C  0.78400511  0.53538351  0.86546196     0.29010
C1458       C  0.77782691  0.53451020  0.82648156    -0.21810
C1459       C  0.76182342  0.50233731  0.80901296    -0.09860
C1460       C  0.74719863  0.47332336  0.83154181     0.29010
F1461       F  0.73350803  0.44084186  0.81618289    -0.20390
H1462       H  0.74202541  0.45101515  0.88665074     0.17380
H1463       H  0.78914308  0.55725178  0.80946803     0.17380
F1464       F  0.80358577  0.56475862  0.88084328    -0.20380
C1465       C  0.29999555  0.51019586  0.63758920    -0.21810
C1466       C  0.28554133  0.48432032  0.61124771    -0.09850
C1467       C  0.26261436  0.45417525  0.62377806     0.29010
C1468       C  0.25671714  0.44857058  0.66225055    -0.21810
C1469       C  0.27262837  0.47340829  0.68882775    -0.09860
C1470       C  0.29298464  0.50526501  0.67606265     0.29010
F1471       F  0.30721055  0.53099391  0.70085964    -0.20390
H1472       H  0.31727126  0.53376737  0.62842585     0.17380
H1473       H  0.24172094  0.42347815  0.67135307     0.17380
F1474       F  0.24851471  0.42817717  0.59910840    -0.20380
C1475       C  0.25233626  0.43834940  0.34915788    -0.21810
C1476       C  0.26126177  0.47191290  0.36860679    -0.09850
C1477       C  0.26239801  0.50603422  0.34834060     0.29010
C1478       C  0.25851280  0.50596399  0.30896868    -0.21810
C1479       C  0.25303384  0.47200726  0.28901612    -0.09860
C1480       C  0.24763275  0.43844455  0.30966480     0.29010
F1481       F  0.24208129  0.40514118  0.29130503    -0.20390
H1482       H  0.25183058  0.41169593  0.36414663     0.17380
H1483       H  0.26376007  0.53196556  0.29372152     0.17380
F1484       F  0.27180783  0.53885338  0.36605199    -0.20380
C1485       C  0.27333997  0.61762704  0.44031448    -0.21810
C1486       C  0.27741027  0.59460458  0.47226827    -0.09850
C1487       C  0.27191470  0.61071251  0.50836325     0.29010
C1488       C  0.26499718  0.64936107  0.51224385    -0.21810
C1489       C  0.26342950  0.67275930  0.48048282    -0.09860
C1490       C  0.26616188  0.65634571  0.44431200     0.29010
F1491       F  0.26441164  0.67813040  0.41288659    -0.20390
H1492       H  0.27678590  0.60588186  0.41228517     0.17380
H1493       H  0.26401602  0.66160453  0.54030348     0.17380
F1494       F  0.27620805  0.58981493  0.54021628    -0.20380
C1495       C  0.28199300  0.33938470  0.54906259    -0.21810
C1496       C  0.27565341  0.36066400  0.51620241    -0.09850
C1497       C  0.25987810  0.34243090  0.48420091     0.29010
C1498       C  0.25379253  0.30328945  0.48434460    -0.21810
C1499       C  0.26266422  0.28186993  0.51641094    -0.09860
C1500       C  0.27535038  0.30041511  0.54926489     0.29010
F1501       F  0.28338794  0.28045789  0.58096432    -0.20390
H1502       H  0.29338841  0.35267077  0.57428918     0.17380
H1503       H  0.24439416  0.28937818  0.45865134     0.17380
F1504       F  0.25282803  0.36178095  0.45185911    -0.20380
C1505       C  0.50517304  0.60867376  0.74216983    -0.21810
C1506       C  0.53647007  0.59210094  0.72408649    -0.09850
C1507       C  0.56773911  0.61521372  0.71549621     0.29010
C1508       C  0.56673387  0.65406719  0.72330896    -0.21810
C1509       C  0.53481554  0.67064889  0.73991063    -0.09860
C1510       C  0.50420108  0.64750044  0.74979287     0.29010
F1511       F  0.47232239  0.66275922  0.76438264    -0.20390
H1512       H  0.48063376  0.59179492  0.74925516     0.17380
H1513       H  0.59029395  0.67164910  0.71474845     0.17380
F1514       F  0.59855528  0.60078768  0.69803458    -0.20380
C1515       C  0.65088869  0.43570013  0.73802192    -0.21810
C1516       C  0.62680899  0.46673413  0.74160620    -0.09850
C1517       C  0.64166264  0.50176273  0.75379475     0.29010
C1518       C  0.68068644  0.50647486  0.75829019    -0.21810
C1519       C  0.70509506  0.47617861  0.75141515    -0.09860
C1520       C  0.68973934  0.44017642  0.74358950     0.29010
F1521       F  0.71255195  0.40981347  0.73895319    -0.20390
H1522       H  0.63984664  0.40855426  0.72885235     0.17380
H1523       H  0.69203617  0.53443247  0.76394054     0.17380
F1524       F  0.61904113  0.53250577  0.75701797    -0.20380
C1525       C  0.36858200  0.41745573  0.72529340    -0.21810
C1526       C  0.39164491  0.44836302  0.73516924    -0.09850
C1527       C  0.37527776  0.47958573  0.75379808     0.29010
C1528       C  0.33605758  0.48165348  0.75779055    -0.21810
C1529       C  0.31296481  0.45306203  0.74280104    -0.09860
C1530       C  0.32948169  0.41978211  0.72904145     0.29010
F1531       F  0.30749419  0.39148574  0.71488954    -0.20390
H1532       H  0.38039800  0.39268809  0.71181110     0.17380
H1533       H  0.32358489  0.50729884  0.76884580     0.17380
F1534       F  0.39668269  0.50934380  0.76561455    -0.20380
C1535       C  0.48284425  0.34042694  0.76306214    -0.21810
C1536       C  0.51790423  0.35755252  0.75539448    -0.09850
C1537       C  0.54913347  0.33409907  0.74817022     0.29010
C1538       C  0.54411226  0.29514497  0.74298564    -0.21810
C1539       C  0.50804081  0.27878177  0.74535140    -0.09860
C1540       C  0.47783181  0.30125053  0.75799235     0.29010
F1541       F  0.44270378  0.28620742  0.76145178    -0.20390
H1542       H  0.45820925  0.35783024  0.76800419     0.17380
H1543       H  0.56780128  0.27829207  0.73360921     0.17380
F1544       F  0.58339314  0.34964758  0.74052167    -0.20380
C1545       C  0.75526860  0.61246772  0.54071663    -0.21810
C1546       C  0.75466417  0.59076248  0.50736105    -0.09850
C1547       C  0.75812680  0.60913672  0.47243770     0.29010
C1548       C  0.75805835  0.64881990  0.47103391    -0.21810
C1549       C  0.75440778  0.67022142  0.50435176    -0.09860
C1550       C  0.75484838  0.65179084  0.53928971     0.29010
F1551       F  0.75169873  0.67177164  0.57190319    -0.20390
H1552       H  0.75280459  0.59886702  0.56798994     0.17380
H1553       H  0.75880274  0.66274151  0.44387719     0.17380
F1554       F  0.75765280  0.58902876  0.43974452    -0.20380
C1555       C  0.75165528  0.45805606  0.64055102    -0.21810
C1556       C  0.73721968  0.49143081  0.62474928    -0.09850
C1557       C  0.73395980  0.52394222  0.64707129     0.29010
C1558       C  0.74210338  0.52218991  0.68554725    -0.21810
C1559       C  0.75286570  0.48786460  0.70219957    -0.09860
C1560       C  0.75921820  0.45611260  0.67927680     0.29010
F1561       F  0.77034460  0.42279696  0.69459087    -0.20390
H1562       H  0.75511969  0.43299546  0.62324601     0.17380
H1563       H  0.73691042  0.54681908  0.70297927     0.17380
F1564       F  0.72193655  0.55700268  0.63183812    -0.20380
C1565       C  0.76199908  0.32566083  0.48030313    -0.21810
C1566       C  0.75541689  0.35120152  0.50987165    -0.09850
C1567       C  0.75284516  0.33783595  0.54708182     0.29010
C1568       C  0.75207284  0.29897097  0.55377835    -0.21810
C1569       C  0.75438764  0.27344340  0.52355903    -0.09860
C1570       C  0.76175127  0.28690734  0.48708782     0.29010
F1571       F  0.76408420  0.26270996  0.45740218    -0.20390
H1572       H  0.76426934  0.33563257  0.45148909     0.17380
H1573       H  0.74629150  0.28884693  0.58199401     0.17380
F1574       F  0.74620996  0.36196906  0.57614810    -0.20380
C1575       C  0.76113879  0.49483555  0.36663214    -0.21810
C1576       C  0.75578802  0.46009003  0.38482723    -0.09850
C1577       C  0.75215032  0.42695903  0.36308347     0.29010
C1578       C  0.75140016  0.42898553  0.32366902    -0.21810
C1579       C  0.75388197  0.46406695  0.30551211    -0.09860
C1580       C  0.76022792  0.49689854  0.32717097     0.29010
F1581       F  0.76255953  0.53125158  0.31039000    -0.20390
H1582       H  0.76272826  0.52073006  0.38298195     0.17380
H1583       H  0.74621704  0.40350044  0.30736524     0.17380
F1584       F  0.74534370  0.39322702  0.38002851    -0.20380
C1585       C  0.64317522  0.71238765  0.47029189    -0.21810
C1586       C  0.62542274  0.72215417  0.50424312    -0.09850
C1587       C  0.64754102  0.73512268  0.53479324     0.29010
C1588       C  0.68674609  0.73409757  0.53290830    -0.21810
C1589       C  0.70477960  0.72104394  0.50032067    -0.09860
C1590       C  0.68277126  0.71179043  0.46828951     0.29010
F1591       F  0.69936306  0.70022039  0.43587682    -0.20390
H1592       H  0.62659765  0.70218227  0.44650975     0.17380
H1593       H  0.70293921  0.74055812  0.55811855     0.17380
F1594       F  0.63121515  0.74560597  0.56778780    -0.20380
C1595       C  0.54623639  0.73957798  0.63846515    -0.21810
C1596       C  0.51197824  0.72624136  0.62315201    -0.09850
C1597       C  0.48127341  0.71922284  0.64685482     0.29010
C1598       C  0.48641670  0.72053886  0.68582451    -0.21810
C1599       C  0.52235275  0.72805292  0.70112482    -0.09860
C1600       C  0.55161287  0.74021031  0.67755609     0.29010
F1601       F  0.58652822  0.74762427  0.69195067    -0.20390
H1602       H  0.57029306  0.74451320  0.62031303     0.17380
H1603       H  0.46363085  0.71123587  0.70389556     0.17380
F1604       F  0.44807544  0.70604009  0.63242772    -0.20380
C1605       C  0.37081409  0.71752442  0.52250675    -0.21810
C1606       C  0.39039098  0.70971817  0.48911351    -0.09850
C1607       C  0.37155484  0.71278987  0.45416488     0.29010
C1608       C  0.33288431  0.71983779  0.45302521    -0.21810
C1609       C  0.31240445  0.72271778  0.48659128    -0.09860
C1610       C  0.33183254  0.72361356  0.52134150     0.29010
F1611       F  0.31258919  0.72622164  0.55425395    -0.20390
H1612       H  0.38501464  0.71570161  0.54963115     0.17380
H1613       H  0.31850099  0.72002070  0.42598636     0.17380
F1614       F  0.39008690  0.70695341  0.42120891    -0.20380
C1615       C  0.47839140  0.72497679  0.36698719    -0.21810
C1616       C  0.50755274  0.70294416  0.38244275    -0.09850
C1617       C  0.53757544  0.69157150  0.35956038     0.29010
C1618       C  0.53687484  0.69975502  0.32107713    -0.21810
C1619       C  0.50537831  0.71765294  0.30459449    -0.09860
C1620       C  0.47683177  0.73174001  0.32813118     0.29010
F1621       F  0.44540302  0.74795274  0.31326039    -0.20390
H1622       H  0.45507476  0.73401593  0.38445314     0.17380
H1623       H  0.55933530  0.68889265  0.30354878     0.17380
F1624       F  0.56652658  0.67095153  0.37405393    -0.20380
C1625       C  0.64181772  0.44127421  0.25082925    -0.21810
C1626       C  0.62484608  0.47529462  0.26159371    -0.09850
C1627       C  0.64696257  0.50782627  0.26681930     0.29010
C1628       C  0.68615199  0.50570918  0.26322560    -0.21810
C1629       C  0.70350241  0.47085583  0.25587487    -0.09860
C1630       C  0.68104522  0.43875285  0.24884422     0.29010
F1631       F  0.69692786  0.40419855  0.24462231    -0.20390
H1632       H  0.62496140  0.41575547  0.24788509     0.17380
H1633       H  0.70310000  0.53057924  0.26915868     0.17380
F1634       F  0.63091112  0.54075337  0.27808737    -0.20380
C1635       C  0.36873883  0.49746319  0.23758517    -0.21810
C1636       C  0.38614876  0.46481307  0.25140506    -0.09850
C1637       C  0.36467633  0.43234162  0.25901946     0.29010
C1638       C  0.32565326  0.43351666  0.25542168    -0.21810
C1639       C  0.30796921  0.46737113  0.24547687    -0.09860
C1640       C  0.32955925  0.49910568  0.23545917     0.29010
F1641       F  0.31279052  0.53253681  0.22725172    -0.20390
H1642       H  0.38507489  0.52296685  0.23275821     0.17380
H1643       H  0.30915650  0.40881110  0.26280233     0.17380
F1644       F  0.38113523  0.40082536  0.27333632    -0.20380
C1645       C  0.54431992  0.33430828  0.24745307    -0.21810
C1646       C  0.51196358  0.35689684  0.25090800    -0.09850
C1647       C  0.47600444  0.34013705  0.24739947     0.29010
C1648       C  0.47269789  0.30086827  0.24420179    -0.21810
C1649       C  0.50514796  0.27822493  0.24404944    -0.09860
C1650       C  0.54099257  0.29523281  0.24401368     0.29010
F1651       F  0.57280355  0.27393584  0.24330801    -0.20390
H1652       H  0.57229384  0.34673470  0.24969064     0.17380
H1653       H  0.44489138  0.28792335  0.24450327     0.17380
F1654       F  0.44421437  0.36113037  0.25090336    -0.20380
C1655       C  0.45860376  0.65291313  0.26648787    -0.21810
C1656       C  0.49252266  0.66965293  0.25505100    -0.09850
C1657       C  0.52349838  0.64657736  0.24621796     0.29010
C1658       C  0.52138496  0.60750343  0.25222745    -0.21810
C1659       C  0.48845242  0.59114119  0.26727763    -0.09860
C1660       C  0.45644049  0.61414707  0.27275537     0.29010
F1661       F  0.42356653  0.59979751  0.28629346    -0.20390
H1662       H  0.43465397  0.67043956  0.27379086     0.17380
H1663       H  0.54621602  0.59044218  0.24713507     0.17380
F1664       F  0.55670630  0.66208786  0.23503248    -0.20380
C1665       C  0.51648848  0.23003829  0.62141006    -0.21810
C1666       C  0.48837486  0.25430312  0.60713900    -0.09850
C1667       C  0.46260872  0.27044297  0.63238461     0.29010
C1668       C  0.46569666  0.26326635  0.67112029    -0.21810
C1669       C  0.49516528  0.24084488  0.68578839    -0.09860
C1670       C  0.52042422  0.22394992  0.66034752     0.29010
F1671       F  0.55088604  0.20449628  0.67303433    -0.20390
H1672       H  0.53742583  0.21817225  0.60264177     0.17380
H1673       H  0.44582778  0.27674335  0.68987042     0.17380
F1674       F  0.43531521  0.29427276  0.61978835    -0.20380
C1675       C  0.52817538  0.23145062  0.35337867    -0.21810
C1676       C  0.49240474  0.23704810  0.36933905    -0.09850
C1677       C  0.45981119  0.23216618  0.34679552     0.29010
C1678       C  0.46326634  0.22727534  0.30803469    -0.21810
C1679       C  0.49905868  0.22685852  0.29152588    -0.09860
C1680       C  0.53152740  0.22637249  0.31447145     0.29010
F1681       F  0.56642717  0.22416877  0.29902144    -0.20390
H1682       H  0.55360326  0.23423107  0.37039517     0.17380
H1683       H  0.43803610  0.22745270  0.29052306     0.17380
F1684       F  0.42465625  0.23513894  0.36168555    -0.20380
C1685       C  0.35940566  0.23340753  0.46217033    -0.21810
C1686       C  0.38526657  0.23398203  0.49242194    -0.09850
C1687       C  0.37184489  0.22752077  0.52911866     0.29010
C1688       C  0.33277133  0.22409150  0.53558374    -0.21810
C1689       C  0.30668928  0.22769689  0.50563523    -0.09860
C1690       C  0.32051843  0.23040268  0.46861172     0.29010
F1691       F  0.29626719  0.23475295  0.43907865    -0.20390
H1692       H  0.36907499  0.23921619  0.43377262     0.17380
H1693       H  0.32278591  0.22220409  0.56433311     0.17380
F1694       F  0.39600955  0.22879808  0.55902643    -0.20380
C1695       C  0.63770119  0.24936818  0.55718651    -0.21810
C1696       C  0.62035098  0.25393185  0.52164228    -0.09850
C1697       C  0.64150996  0.24596066  0.48894049     0.29010
C1698       C  0.67934473  0.23543507  0.49180843    -0.21810
C1699       C  0.69719004  0.23268958  0.52707706    -0.09860
C1700       C  0.67588174  0.23876527  0.55991082     0.29010
F1701       F  0.69258582  0.23648238  0.59442736    -0.20390
H1702       H  0.62198618  0.25483588  0.58275518     0.17380
H1703       H  0.69553862  0.23207067  0.46617666     0.17380
F1704       F  0.62652439  0.25082501  0.45388748    -0.20380
loop_ 
_geom_bond_atom_site_label_1 
_geom_bond_atom_site_label_2 
_geom_bond_distance 
_geom_bond_site_symmetry_2 
_ccdc_geom_bond_type 
O1            C9   1.251       .  A
O1          Co21   1.907       .  S
O2           C10   1.253       .  A
O2          Co22   1.963       .  S
O3           C11   1.267       .  A
O3          Co23   2.023       .  S
O4           C12   1.271       .  A
O4          Co24   2.028       .  S
O5           C11   1.256       .  A
O5          Co22   1.965       .  S
O6           C12   1.242       .  A
O6          Co21   1.938       .  S
O7           C10   1.257       .  A
O7          Co24   1.979       .  S
O8            C9   1.291       .  A
O8          Co23   2.123       .  S
C9           C96   1.473       .  S
C10        C1676   1.467       .  S
C11        C1696   1.485       .  S
C12          C38   1.454       .  S
O13          C26   1.290       .  A
O13         Co21   2.047       .  S
O14          C27   1.272       .  A
O14         Co22   2.022       .  S
O15          C28   1.268       .  A
O15         Co23   1.900       .  S
O16          C29   1.262       .  A
O16         Co24   1.952       .  S
O17          C29   1.280       .  A
O17         Co22   2.046       .  S
O18          C28   1.296       .  A
O18         Co21   2.048       .  S
O19          C26   1.251       .  A
O19         Co24   1.958       .  S
O20          C27   1.263       .  A
O20         Co23   1.975       .  S
Co21         O25   2.001       .  S
Co22         O25   2.052       .  S
Co23         O25   2.049       .  S
Co24         O25   2.070       .  S
C26         C154   1.461       .  S
C27        C1666   1.482       .  S
C28         C144   1.429       .  S
C29        C1686   1.477       .  S
O30          C38   1.251       .  A
O30         Co50   1.933       .  S
O31          C39   1.245       .  A
O31         Co51   1.951       .  S
O32          C40   1.280       .  A
O32         Co52   2.134       .  S
O33          C41   1.261       .  A
O33         Co53   1.968       .  S
O34          C40   1.247       .  A
O34         Co51   1.938       .  S
O35          C41   1.267       .  A
O35         Co50   2.000       .  S
O36          C39   1.254       .  A
O36         Co53   1.993       .  S
O37          C38   1.293       .  A
O37         Co52   2.077       .  S
C39        C1636   1.444       .  S
C40         C157   1.499       .  S
C41        C1646   1.469       .  S
O42          C55   1.246       .  A
O42         Co50   1.961       .  S
O43          C56   1.296       .  A
O43         Co51   2.105       .  S
O44          C57   1.263       .  A
O44         Co52   1.924       .  S
O45          C58   1.261       .  A
O45         Co53   1.964       .  S
O46          C58   1.269       .  A
O46         Co51   2.009       .  S
O47          C57   1.285       .  A
O47         Co50   2.081       .  S
O48          C55   1.252       .  A
O48         Co53   1.995       .  S
O49          C56   1.271       .  A
O49         Co52   1.894       .  S
Co50         O54   2.106       .  S
Co51         O54   2.097       .  S
Co52         O54   1.870       .  S
Co53         O54   2.120       .  S
C55        C1626   1.455       .  S
C56          C67   1.451       .  S
C57         C115   1.453       .  S
C58        C1659   1.481       .  S
O59          C67   1.273       .  A
O59         Co79   2.067       .  S
O60          C68   1.258       .  A
O60         Co80   1.994       .  S
O61          C69   1.256       .  A
O61         Co81   1.987       .  S
O62          C70   1.264       .  A
O62         Co82   1.966       .  S
O63          C69   1.258       .  A
O63         Co80   1.999       .  S
O64          C70   1.268       .  A
O64         Co79   1.999       .  S
O65          C68   1.255       .  A
O65         Co82   1.978       .  S
O66          C67   1.278       .  A
O66         Co81   1.993       .  S
C68        C1586   1.471       .  S
C69        C1616   1.466       .  S
C70         C113   1.455       .  S
O71          C84   1.244       .  A
O71         Co79   1.947       .  S
O72          C85   1.259       .  A
O72         Co80   1.967       .  S
O73          C86   1.280       .  A
O73         Co81   2.034       .  S
O74          C87   1.256       .  A
O74         Co82   1.950       .  S
O75          C87   1.265       .  A
O75         Co80   2.013       .  S
O76          C86   1.267       .  A
O76         Co79   2.045       .  S
O77          C84   1.247       .  A
O77         Co82   1.990       .  S
O78          C85   1.266       .  A
O78         Co81   2.004       .  S
Co79         O83   2.141       .  S
Co80         O83   2.104       .  S
Co81         O83   1.987       .  S
Co82         O83   2.112       .  S
C84         C128   1.455       .  S
C85        C1606   1.467       .  S
C86         C171   1.483       .  S
C87        C1596   1.454       .  S
O88          C96   1.287       .  A
O88        Co108   2.037       .  S
O89          C97   1.271       .  A
O89        Co109   1.992       .  S
O90          C98   1.274       .  A
O90        Co110   2.006       .  S
O91          C99   1.268       .  A
O91        Co111   2.010       .  S
O92          C98   1.265       .  A
O92        Co109   1.959       .  S
O93          C99   1.276       .  A
O93        Co108   2.073       .  S
O94          C97   1.293       .  A
O94        Co111   2.030       .  S
O95          C96   1.267       .  A
O95        Co110   1.976       .  S
C97        C1556   1.461       .  S
C98        C1566   1.464       .  S
C99         C142   1.499       .  S
O100        C113   1.286       .  A
O100       Co108   2.003       .  S
O101        C114   1.259       .  A
O101       Co109   2.018       .  S
O102        C115   1.279       .  A
O102       Co110   2.046       .  S
O103        C116   1.246       .  A
O103       Co111   1.949       .  S
O104        C116   1.263       .  A
O104       Co109   2.026       .  S
O105        C115   1.272       .  A
O105       Co108   1.922       .  S
O106        C113   1.274       .  A
O106       Co111   1.986       .  S
O107        C114   1.245       .  A
O107       Co110   1.949       .  S
Co108       O112   1.937       .  S
Co109       O112   2.084       .  S
Co110       O112   2.080       .  S
Co111       O112   2.013       .  S
C114       C1576   1.465       .  S
C116       C1546   1.474       .  S
O117        C125   1.266       .  A
O117       Co137   1.959       .  S
O118        C126   1.262       .  A
O118       Co138   1.972       .  S
O119        C127   1.273       .  A
O119       Co139   2.019       .  S
O120        C128   1.294       .  A
O120       Co140   2.110       .  S
O121        C127   1.261       .  A
O121       Co138   1.953       .  S
O122        C128   1.269       .  A
O122       Co137   1.879       .  S
O123        C126   1.272       .  A
O123       Co140   2.021       .  S
O124        C125   1.282       .  A
O124       Co139   2.062       .  S
C125        C173   1.488       .  S
C126       C1506   1.490       .  S
C127       C1526   1.478       .  S
O129        C142   1.294       .  A
O129       Co137   2.132       .  S
O130        C143   1.273       .  A
O130       Co138   2.059       .  S
O131        C144   1.245       .  A
O131       Co139   1.938       .  S
O132        C145   1.267       .  A
O132       Co140   1.965       .  S
O133        C145   1.274       .  A
O133       Co138   2.019       .  S
O134        C144   1.262       .  A
O134       Co137   2.002       .  S
O135        C142   1.269       .  A
O135       Co140   1.919       .  S
O136        C143   1.247       .  A
O136       Co139   1.945       .  S
Co137       O141   2.009       .  S
Co138       O141   2.058       .  S
Co139       O141   2.011       .  S
Co140       O141   1.990       .  S
C143       C1536   1.478       .  S
C145       C1516   1.467       .  S
O146        C154   1.257       .  A
O146       Co166   2.033       .  S
O147        C155   1.262       .  A
O147       Co167   2.029       .  S
O148        C156   1.286       .  A
O148       Co168   2.028       .  S
O149        C157   1.252       .  A
O149       Co169   1.931       .  S
O150        C156   1.274       .  A
O150       Co167   1.969       .  S
O151        C157   1.308       .  A
O151       Co166   2.152       .  S
O152        C155   1.249       .  A
O152       Co169   1.966       .  S
O153        C154   1.248       .  A
O153       Co168   1.974       .  S
C155       C1476   1.481       .  S
C156       C1496   1.484       .  S
O158        C171   1.265       .  A
O158       Co166   1.985       .  S
O159        C172   1.253       .  A
O159       Co167   1.979       .  S
O160        C173   1.293       .  A
O160       Co168   2.011       .  S
O161        C174   1.283       .  A
O161       Co169   2.041       .  S
O162        C174   1.263       .  A
O162       Co167   1.945       .  S
O163        C173   1.294       .  A
O163       Co166   1.994       .  S
O164        C171   1.267       .  A
O164       Co169   2.018       .  S
O165        C172   1.255       .  A
O165       Co168   1.987       .  S
Co166       O170   2.068       .  S
Co167       O170   2.077       .  S
Co168       O170   2.013       .  S
Co169       O170   2.016       .  S
C172       C1466   1.472       .  S
C174       C1486   1.482       .  S
O175        C183   1.282   1_554  A
O175       Co195   1.981       .  S
O176        C184   1.261       .  A
O176       Co196   2.019   1_554  S
O177        C185   1.264       .  A
O177       Co197   1.976   1_554  S
O178        C186   1.276       .  A
O178       Co198   2.023       .  S
O179        C185   1.265       .  A
O179       Co196   1.995   1_554  S
O180        C186   1.264       .  A
O180       Co195   1.908       .  S
O181        C184   1.251       .  A
O181       Co198   1.969       .  S
O182        C183   1.291       .  A
O182       Co197   2.043       .  S
C183        C328   1.476       .  S
C184       C1446   1.472       .  S
C185       C1436   1.472       .  S
C186        C270   1.419       .  S
O187        C200   1.278   1_556  A
O187       Co195   2.027   1_556  S
O188        C201   1.261       .  A
O188       Co196   1.940       .  S
O189        C202   1.246       .  A
O189       Co197   2.002       .  S
O190        C203   1.271       .  A
O190       Co198   1.997       .  S
O191        C203   1.262   1_556  A
O191       Co196   1.952       .  S
O192        C202   1.258       .  A
O192       Co195   2.011   1_556  S
O193        C200   1.270       .  A
O193       Co198   2.001       .  S
O194        C201   1.276       .  A
O194       Co197   2.020       .  S
Co195       O199   1.903   1_554  S
Co196       O199   2.066       .  S
Co197       O199   2.071       .  S
Co198       O199   2.086   1_554  S
C200        C299   1.474   1_554  S
C201       C1456   1.474       .  S
C202        C212   1.456       .  S
C203       C1426   1.468       .  S
O204        C212   1.294       .  A
O204       Co224   2.024       .  S
O205        C213   1.277       .  A
O205       Co225   2.027       .  S
O206        C214   1.266       .  A
O206       Co226   1.996   1_455  S
O207        C215   1.252       .  A
O207       Co227   1.984   1_655  S
O208        C214   1.271       .  A
O208       Co225   2.037       .  S
O209        C215   1.254       .  A
O209       Co224   1.985       .  S
O210        C213   1.262       .  A
O210       Co227   1.957       .  S
O211        C212   1.275       .  A
O211       Co226   1.938       .  S
C213       C1409   1.484       .  S
C214        C331   1.509       .  S
C215       C1419   1.465       .  S
O216        C229   1.287       .  A
O216       Co224   2.039       .  S
O217        C230   1.253       .  A
O217       Co225   1.934       .  S
O218        C231   1.277   1_455  A
O218       Co226   2.063   1_455  S
O219        C232   1.260       .  A
O219       Co227   2.006       .  S
O220        C232   1.253       .  A
O220       Co225   1.958       .  S
O221        C231   1.244       .  A
O221       Co224   1.972       .  S
O222        C229   1.270   1_455  A
O222       Co227   1.966       .  S
O223        C230   1.300       .  A
O223       Co226   2.095   1_455  S
Co224       O228   2.058   1_655  S
Co225       O228   2.064       .  S
Co226       O228   2.018   1_655  S
Co227       O228   2.083       .  S
C229       C1399   1.495       .  S
C230        C260   1.473       .  S
C231        C318   1.483       .  S
C232       C1389   1.457       .  S
O233        C241   1.292   1_554  A
O233       Co253   2.068   1_554  S
O234        C242   1.279       .  A
O234       Co254   2.055   1_554  S
O235        C243   1.261   1_554  A
O235       Co255   1.965   1_554  S
O236        C244   1.250       .  A
O236       Co256   1.948       .  S
O237        C243   1.271       .  A
O237       Co254   2.015       .  S
O238        C244   1.279       .  A
O238       Co253   2.040   1_554  S
O239        C242   1.253       .  A
O239       Co256   1.938       .  S
O240        C241   1.270       .  A
O240       Co255   1.943       .  S
C241        C316   1.441       .  S
C242       C1356   1.466       .  S
C243       C1379   1.459       .  S
C244        C288   1.432       .  S
O245        C258   1.245       .  A
O245       Co253   1.945   1_554  S
O246        C259   1.255       .  A
O246       Co254   1.956       .  S
O247        C260   1.294       .  A
O247       Co255   2.112       .  S
O248        C261   1.262       .  A
O248       Co256   2.001       .  S
O249        C261   1.256   1_556  A
O249       Co254   1.967       .  S
O250        C260   1.254       .  A
O250       Co253   1.931       .  S
O251        C258   1.269       .  A
O251       Co256   2.010       .  S
O252        C259   1.271       .  A
O252       Co255   2.031       .  S
Co253       O257   1.996       .  S
Co254       O257   2.046       .  S
Co255       O257   2.049       .  S
Co256       O257   2.054   1_554  S
C258        C345   1.455       .  S
C259       C1346   1.487       .  S
C261       C1366   1.483       .  S
O262        C270   1.244       .  A
O262       Co282   1.892       .  S
O263        C271   1.281       .  A
O263       Co283   2.022       .  S
O264        C272   1.274       .  A
O264       Co284   2.091       .  S
O265        C273   1.259       .  A
O265       Co285   2.004   1_655  S
O266        C272   1.256       .  A
O266       Co283   1.984       .  S
O267        C273   1.249       .  A
O267       Co282   1.945       .  S
O268        C271   1.272       .  A
O268       Co285   1.975       .  S
O269        C270   1.288       .  A
O269       Co284   2.060   1_655  S
C271       C1339   1.480       .  S
C272        C302   1.495       .  S
C273       C1309   1.451       .  S
O274        C287   1.273       .  A
O274       Co282   2.008       .  S
O275        C288   1.285       .  A
O275       Co283   2.013       .  S
O276        C289   1.257   1_455  A
O276       Co284   1.966       .  S
O277        C290   1.251       .  A
O277       Co285   1.978       .  S
O278        C290   1.250       .  A
O278       Co283   1.986       .  S
O279        C289   1.273       .  A
O279       Co282   2.039       .  S
O280        C287   1.265   1_455  A
O280       Co285   1.966       .  S
O281        C288   1.268       .  A
O281       Co284   1.913       .  S
Co282       O286   2.026       .  S
Co283       O286   2.024   1_455  S
Co284       O286   2.028   1_455  S
Co285       O286   2.074   1_455  S
C287       C1326   1.479       .  S
C289        C347   1.488       .  S
C290       C1316   1.453       .  S
O291        C299   1.273       .  A
O291       Co311   2.067   1_655  S
O292        C300   1.268       .  A
O292       Co312   2.005   1_554  S
O293        C301   1.293       .  A
O293       Co313   2.048       .  S
O294        C302   1.243       .  A
O294       Co314   1.948       .  S
O295        C301   1.271       .  A
O295       Co312   1.945   1_655  S
O296        C302   1.285       .  A
O296       Co311   2.103   1_554  S
O297        C300   1.259       .  A
O297       Co314   1.940       .  S
O298        C299   1.235       .  A
O298       Co313   1.979       .  S
C300       C1299   1.455       .  S
C301       C1269   1.486       .  S
O303        C316   1.265       .  A
O303       Co311   1.870       .  S
O304        C317   1.253       .  A
O304       Co312   1.973       .  S
O305        C318   1.304       .  A
O305       Co313   2.044       .  S
O306        C319   1.256       .  A
O306       Co314   1.974       .  S
O307        C319   1.255   1_556  A
O307       Co312   1.979       .  S
O308        C318   1.278   1_455  A
O308       Co311   1.984       .  S
O309        C316   1.296   1_554  A
O309       Co314   2.094       .  S
O310        C317   1.254       .  A
O310       Co313   1.994   1_455  S
Co311       O315   1.963   1_456  S
Co312       O315   2.082   1_456  S
Co313       O315   2.019   1_556  S
Co314       O315   2.081   1_455  S
C317       C1279   1.471       .  S
C319       C1286   1.480       .  S
O320        C328   1.264       .  A
O320       Co340   1.863   1_655  S
O321        C329   1.256       .  A
O321       Co341   1.932       .  S
O322        C330   1.253       .  A
O322       Co342   1.990       .  S
O323        C331   1.284       .  A
O323       Co343   2.075       .  S
O324        C330   1.248   1_556  A
O324       Co341   1.958   1_655  S
O325        C331   1.265       .  A
O325       Co340   1.981       .  S
O326        C329   1.275       .  A
O326       Co343   2.032       .  S
O327        C328   1.301       .  A
O327       Co342   2.143   1_556  S
C329       C1246   1.473       .  S
C330       C1229   1.453       .  S
O332        C345   1.266   1_556  A
O332       Co340   2.006       .  S
O333        C346   1.281       .  A
O333       Co341   2.039   1_554  S
O334        C347   1.262       .  A
O334       Co342   1.931       .  S
O335        C348   1.247   1_554  A
O335       Co343   1.951   1_554  S
O336        C348   1.266       .  A
O336       Co341   2.034       .  S
O337        C347   1.296   1_455  A
O337       Co340   2.121   1_554  S
O338        C345   1.243       .  A
O338       Co343   1.953   1_554  S
O339        C346   1.268       .  A
O339       Co342   1.974   1_455  S
Co340       O344   1.996       .  S
Co341       O344   2.051       .  S
Co342       O344   2.032   1_654  S
Co343       O344   2.041       .  S
C346       C1256   1.473       .  S
C348       C1236   1.468       .  S
O349        C357   1.265       .  A
O349       Co369   1.968       .  S
O350        C358   1.274       .  A
O350       Co370   2.021       .  S
O351        C359   1.268       .  A
O351       Co371   2.046   1_554  S
O352        C360   1.259   1_554  A
O352       Co372   1.948       .  S
O353        C359   1.245       .  A
O353       Co370   1.990       .  S
O354        C360   1.271       .  A
O354       Co369   2.004       .  S
O355        C358   1.259       .  A
O355       Co372   1.946       .  S
O356        C357   1.295       .  A
O356       Co371   2.087       .  S
C357        C502   1.484   1_556  S
C358       C1206   1.472       .  S
C359        C444   1.479       .  S
C360       C1196   1.467       .  S
O361        C374   1.253       .  A
O361       Co369   1.957       .  S
O362        C375   1.286       .  A
O362       Co370   1.987       .  S
O363        C376   1.268       .  A
O363       Co371   1.889       .  S
O364        C377   1.266   1_554  A
O364       Co372   2.015       .  S
O365        C377   1.261       .  A
O365       Co370   1.980   1_556  S
O366        C376   1.284       .  A
O366       Co369   2.082       .  S
O367        C374   1.262       .  A
O367       Co372   2.013   1_556  S
O368        C375   1.291   1_556  A
O368       Co371   2.018       .  S
Co369       O373   2.091   1_556  S
Co370       O373   2.030       .  S
Co371       O373   1.917   1_556  S
Co372       O373   2.075       .  S
C374       C1216   1.460       .  S
C375        C473   1.469       .  S
C376        C405   1.452       .  S
C377       C1189   1.483       .  S
O378        C386   1.285       .  A
O378       Co398   2.080       .  S
O379        C387   1.277       .  A
O379       Co399   2.058   1_545  S
O380        C388   1.271       .  A
O380       Co400   1.970       .  S
O381        C389   1.251       .  A
O381       Co401   1.976       .  S
O382        C388   1.277       .  A
O382       Co399   2.024       .  S
O383        C389   1.259       .  A
O383       Co398   1.973   1_545  S
O384        C387   1.255       .  A
O384       Co401   1.955       .  S
O385        C386   1.270       .  A
O385       Co400   1.923       .  S
C386        C504   1.461       .  S
C387       C1166   1.484       .  S
C388       C1149   1.468       .  S
C389        C415   1.448       .  S
O390        C403   1.257       .  A
O390       Co398   1.949       .  S
O391        C404   1.260       .  A
O391       Co399   1.978       .  S
O392        C405   1.300       .  A
O392       Co400   2.142       .  S
O393        C406   1.273   1_545  A
O393       Co401   2.024       .  S
O394        C406   1.261       .  A
O394       Co399   1.964       .  S
O395        C405   1.254       .  A
O395       Co398   1.847       .  S
O396        C403   1.280   1_545  A
O396       Co401   2.052       .  S
O397        C404   1.266       .  A
O397       Co400   2.003       .  S
Co398       O402   1.974       .  S
Co399       O402   2.040       .  S
Co400       O402   2.024       .  S
Co401       O402   2.049   1_545  S
C403        C476   1.469       .  S
C404       C1176   1.486       .  S
C406       C1156   1.489       .  S
O407        C415   1.259       .  A
O407       Co427   1.956   1_556  S
O408        C416   1.301   1_556  A
O408       Co428   2.073       .  S
O409        C417   1.270       .  A
O409       Co429   1.873       .  S
O410        C418   1.256       .  A
O410       Co430   2.022   1_556  S
O411        C417   1.302       .  A
O411       Co428   2.087       .  S
O412        C418   1.285   1_554  A
O412       Co427   2.065       .  S
O413        C416   1.274       .  A
O413       Co430   1.876       .  S
O414        C415   1.264       .  A
O414       Co429   1.994       .  S
C416       C1109   1.470       .  S
C417       C1126   1.473       .  S
C418        C520   1.516       .  S
O419        C432   1.249       .  A
O419       Co427   1.960       .  S
O420        C433   1.253       .  A
O420       Co428   2.014       .  S
O421        C434   1.269       .  A
O421       Co429   2.015       .  S
O422        C435   1.245       .  A
O422       Co430   1.943       .  S
O423        C435   1.251       .  A
O423       Co428   1.990   1_554  S
O424        C434   1.265   1_554  A
O424       Co427   1.980       .  S
O425        C432   1.283       .  A
O425       Co430   2.085       .  S
O426        C433   1.240       .  A
O426       Co429   1.949       .  S
Co427       O431   2.032       .  S
Co428       O431   2.233   1_556  S
Co429       O431   1.912   1_556  S
Co430       O431   1.929       .  S
C432        C461   1.493       .  S
C433       C1119   1.465       .  S
C434        C490   1.464       .  S
C435       C1136   1.448       .  S
O436        C444   1.301       .  A
O436       Co456   2.124       .  S
O437        C445   1.281       .  A
O437       Co457   2.066       .  S
O438        C446   1.268       .  A
O438       Co458   1.972       .  S
O439        C447   1.255       .  A
O439       Co459   1.993   1_565  S
O440        C446   1.273       .  A
O440       Co457   2.015       .  S
O441        C447   1.254       .  A
O441       Co456   1.994       .  S
O442        C445   1.254       .  A
O442       Co459   1.948   1_565  S
O443        C444   1.268       .  A
O443       Co458   1.909       .  S
C445       C1086   1.479       .  S
C446       C1076   1.467       .  S
C447        C492   1.469       .  S
O448        C461   1.261       .  A
O448       Co456   1.981   1_545  S
O449        C462   1.264       .  A
O449       Co457   1.991       .  S
O450        C463   1.296       .  A
O450       Co458   2.121       .  S
O451        C464   1.268       .  A
O451       Co459   2.014       .  S
O452        C464   1.258       .  A
O452       Co457   1.957   1_545  S
O453        C463   1.253       .  A
O453       Co456   1.808       .  S
O454        C461   1.287       .  A
O454       Co459   2.057       .  S
O455        C462   1.270       .  A
O455       Co458   2.021       .  S
Co456       O460   1.974       .  S
Co457       O460   2.049       .  S
Co458       O460   2.012       .  S
Co459       O460   2.046   1_545  S
C462       C1096   1.503       .  S
C463        C521   1.424       .  S
C464       C1066   1.471       .  S
O465        C473   1.299   1_556  A
O465       Co485   2.106       .  S
O466        C474   1.273       .  A
O466       Co486   2.054       .  S
O467        C475   1.263       .  A
O467       Co487   1.952   1_556  S
O468        C476   1.243       .  A
O468       Co488   1.958   1_565  S
O469        C475   1.275       .  A
O469       Co486   2.022       .  S
O470        C476   1.266       .  A
O470       Co485   2.033       .  S
O471        C474   1.247       .  A
O471       Co488   1.938   1_565  S
O472        C473   1.261       .  A
O472       Co487   1.902       .  S
C474       C1046   1.472       .  S
C475       C1026   1.451       .  S
O477        C490   1.260   1_554  A
O477       Co485   1.954   1_544  S
O478        C491   1.255       .  A
O478       Co486   1.973   1_554  S
O479        C492   1.299       .  A
O479       Co487   2.121       .  S
O480        C493   1.271       .  A
O480       Co488   2.022       .  S
O481        C493   1.255       .  A
O481       Co486   1.941   1_545  S
O482        C492   1.262       .  A
O482       Co485   1.881   1_554  S
O483        C490   1.281       .  A
O483       Co488   2.049       .  S
O484        C491   1.260       .  A
O484       Co487   2.001       .  S
Co485       O489   2.001       .  S
Co486       O489   2.058       .  S
Co487       O489   2.008   1_554  S
Co488       O489   2.031   1_545  S
C491       C1056   1.482       .  S
C493       C1036   1.477       .  S
O494        C502   1.268       .  A
O494       Co514   1.984       .  S
O495        C503   1.284   1_545  A
O495       Co515   2.034       .  S
O496        C504   1.264       .  A
O496       Co516   2.031   1_556  S
O497        C505   1.264   1_556  A
O497       Co517   1.975       .  S
O498        C504   1.237       .  A
O498       Co515   1.981   1_565  S
O499        C505   1.268       .  A
O499       Co514   1.995       .  S
O500        C503   1.270       .  A
O500       Co517   1.966       .  S
O501        C502   1.288   1_556  A
O501       Co516   2.065   1_556  S
C503       C1006   1.487       .  S
C505        C996   1.477       .  S
O506        C519   1.252       .  A
O506       Co514   1.959       .  S
O507        C520   1.304       .  A
O507       Co515   2.081       .  S
O508        C521   1.263       .  A
O508       Co516   1.859       .  S
O509        C522   1.262   1_556  A
O509       Co517   1.989   1_545  S
O510        C522   1.265       .  A
O510       Co515   1.979   1_554  S
O511        C521   1.274       .  A
O511       Co514   2.056       .  S
O512        C519   1.269       .  A
O512       Co517   2.043   1_554  S
O513        C520   1.283   1_554  A
O513       Co516   2.011   1_545  S
Co514       O518   2.103   1_554  S
Co515       O518   2.080   1_545  S
Co516       O518   1.887   1_554  S
Co517       O518   2.067       .  S
C519       C1016   1.479       .  S
C522        C986   1.466       .  S
O523        C531   1.272   1_455  A
O523       Co543   1.940       .  S
O524        C532   1.259       .  A
O524       Co544   2.008       .  S
O525        C533   1.262       .  A
O525       Co545   1.972   1_455  S
O526        C534   1.267       .  A
O526       Co546   1.904       .  S
O527        C533   1.266       .  A
O527       Co544   2.002       .  S
O528        C534   1.293       .  A
O528       Co543   2.066       .  S
O529        C532   1.252       .  A
O529       Co546   1.981       .  S
O530        C531   1.303       .  A
O530       Co545   2.054       .  S
C531        C676   1.481       .  S
C532        C946   1.467       .  S
C533        C969   1.461       .  S
C534        C608   1.457       .  S
O535        C548   1.293       .  A
O535       Co543   2.062       .  S
O536        C549   1.267       .  A
O536       Co544   1.952   1_655  S
O537        C550   1.245       .  A
O537       Co545   1.993       .  S
O538        C551   1.274       .  A
O538       Co546   1.994       .  S
O539        C551   1.272   1_655  A
O539       Co544   1.978   1_655  S
O540        C550   1.282       .  A
O540       Co543   2.080   1_655  S
O541        C548   1.261       .  A
O541       Co546   1.966       .  S
O542        C549   1.281       .  A
O542       Co545   2.015       .  S
Co543       O547   2.024       .  S
Co544       O547   2.051       .  S
Co545       O547   2.020   1_655  S
Co546       O547   1.902       .  S
C548        C647   1.463   1_455  S
C549        C976   1.474       .  S
C550        C560   1.484       .  S
C551        C959   1.471       .  S
O552        C560   1.279       .  A
O552       Co572   1.934       .  S
O553        C561   1.261       .  A
O553       Co573   1.980   1_565  S
O554        C562   1.284       .  A
O554       Co574   1.964       .  S
O555        C563   1.257       .  A
O555       Co575   1.990       .  S
O556        C562   1.285   1_545  A
O556       Co573   1.987       .  S
O557        C563   1.257       .  A
O557       Co572   1.978       .  S
O558        C561   1.267       .  A
O558       Co575   2.023       .  S
O559        C560   1.293       .  A
O559       Co574   2.078       .  S
C561        C929   1.489       .  S
C562        C679   1.461       .  S
C563        C939   1.460       .  S
O564        C577   1.287       .  A
O564       Co572   2.029       .  S
O565        C578   1.250       .  A
O565       Co573   1.995       .  S
O566        C579   1.302       .  A
O566       Co574   2.094       .  S
O567        C580   1.272       .  A
O567       Co575   1.979   1_545  S
O568        C580   1.275       .  A
O568       Co573   2.005       .  S
O569        C579   1.260       .  A
O569       Co572   1.969       .  S
O570        C577   1.276       .  A
O570       Co575   1.973       .  S
O571        C578   1.276       .  A
O571       Co574   2.044   1_545  S
Co572       O576   1.929       .  S
Co573       O576   2.029   1_545  S
Co574       O576   2.019       .  S
Co575       O576   2.060       .  S
C577        C916   1.484       .  S
C578        C618   1.478       .  S
C579        C666   1.490       .  S
C580        C909   1.479       .  S
O581        C589   1.258       .  A
O581       Co601   1.949       .  S
O582        C590   1.288       .  A
O582       Co602   2.035   1_545  S
O583        C591   1.272   1_565  A
O583       Co603   2.044       .  S
O584        C592   1.273       .  A
O584       Co604   1.988       .  S
O585        C591   1.246       .  A
O585       Co602   1.981   1_545  S
O586        C592   1.270       .  A
O586       Co601   1.983       .  S
O587        C590   1.272       .  A
O587       Co604   1.964   1_545  S
O588        C589   1.293       .  A
O588       Co603   2.076       .  S
C589        C650   1.461       .  S
C590        C879   1.483       .  S
C591        C635   1.464       .  S
C592        C896   1.477       .  S
O593        C606   1.254       .  A
O593       Co601   1.968       .  S
O594        C607   1.300       .  A
O594       Co602   2.018       .  S
O595        C608   1.285       .  A
O595       Co603   2.043       .  S
O596        C609   1.266       .  A
O596       Co604   2.018       .  S
O597        C609   1.261       .  A
O597       Co602   1.980       .  S
O598        C608   1.267       .  A
O598       Co601   1.916       .  S
O599        C606   1.265       .  A
O599       Co604   2.017       .  S
O600        C607   1.269       .  A
O600       Co603   1.914       .  S
Co601       O605   1.917       .  S
Co602       O605   2.020       .  S
Co603       O605   2.012       .  S
Co604       O605   2.049       .  S
C606        C886   1.466       .  S
C607        C695   1.446       .  S
C609        C866   1.486       .  S
O610        C618   1.251       .  A
O610       Co630   1.972       .  S
O611        C619   1.265   1_655  A
O611       Co631   1.961       .  S
O612        C620   1.267       .  A
O612       Co632   1.910       .  S
O613        C621   1.277       .  A
O613       Co633   2.056       .  S
O614        C620   1.293       .  A
O614       Co631   2.073       .  S
O615        C621   1.251       .  A
O615       Co630   1.953   1_455  S
O616        C619   1.275       .  A
O616       Co633   2.022       .  S
O617        C618   1.255       .  A
O617       Co632   2.012       .  S
C619        C859   1.482       .  S
C620        C839   1.474       .  S
C621        C664   1.476       .  S
O622        C635   1.267       .  A
O622       Co630   2.029   1_455  S
O623        C636   1.280       .  A
O623       Co631   2.076   1_455  S
O624        C637   1.286       .  A
O624       Co632   2.019       .  S
O625        C638   1.245       .  A
O625       Co633   1.961       .  S
O626        C638   1.264       .  A
O626       Co631   2.046   1_455  S
O627        C637   1.280       .  A
O627       Co630   2.020       .  S
O628        C635   1.253       .  A
O628       Co633   1.949       .  S
O629        C636   1.268       .  A
O629       Co632   1.952   1_455  S
Co630       O634   2.070   1_655  S
Co631       O634   2.177   1_655  S
Co632       O634   1.936   1_655  S
Co633       O634   2.051       .  S
C636        C829   1.485       .  S
C637        C693   1.462       .  S
C638        C846   1.479       .  S
O639        C647   1.294   1_455  A
O639       Co659   2.110       .  S
O640        C648   1.276       .  A
O640       Co660   2.066       .  S
O641        C649   1.268       .  A
O641       Co661   1.981   1_455  S
O642        C650   1.255       .  A
O642       Co662   1.961       .  S
O643        C649   1.274       .  A
O643       Co660   2.024       .  S
O644        C650   1.265       .  A
O644       Co659   2.014       .  S
O645        C648   1.251       .  A
O645       Co662   1.958       .  S
O646        C647   1.267       .  A
O646       Co661   1.899       .  S
C648        C786   1.489       .  S
C649        C799   1.475       .  S
O651        C664   1.268       .  A
O651       Co659   1.969   1_545  S
O652        C665   1.257       .  A
O652       Co660   1.977   1_655  S
O653        C666   1.311       .  A
O653       Co661   2.159       .  S
O654        C667   1.275       .  A
O654       Co662   2.028   1_545  S
O655        C667   1.256       .  A
O655       Co660   1.936   1_545  S
O656        C666   1.262       .  A
O656       Co659   1.891   1_655  S
O657        C664   1.275       .  A
O657       Co662   2.038   1_545  S
O658        C665   1.269       .  A
O658       Co661   2.029       .  S
Co659       O663   1.994       .  S
Co660       O663   2.058       .  S
Co661       O663   2.016   1_655  S
Co662       O663   2.042       .  S
C665        C809   1.493       .  S
C667        C819   1.475       .  S
O668        C676   1.257       .  A
O668       Co688   1.875       .  S
O669        C677   1.264   1_565  A
O669       Co689   1.954       .  S
O670        C678   1.260       .  A
O670       Co690   1.991       .  S
O671        C679   1.276   1_545  A
O671       Co691   2.031       .  S
O672        C678   1.264   1_655  A
O672       Co689   1.999       .  S
O673        C679   1.268       .  A
O673       Co688   1.955       .  S
O674        C677   1.275       .  A
O674       Co691   2.022       .  S
O675        C676   1.306   1_455  A
O675       Co690   2.161       .  S
C677        C746   1.480       .  S
C678        C776   1.488       .  S
O680        C693   1.257       .  A
O680       Co688   1.983   1_545  S
O681        C694   1.275       .  A
O681       Co689   2.025   1_455  S
O682        C695   1.262       .  A
O682       Co690   1.889       .  S
O683        C696   1.252       .  A
O683       Co691   1.955   1_455  S
O684        C696   1.274       .  A
O684       Co689   2.043   1_445  S
O685        C695   1.290       .  A
O685       Co688   2.110   1_455  S
O686        C693   1.260   1_455  A
O686       Co691   1.990   1_455  S
O687        C694   1.261       .  A
O687       Co690   1.960       .  S
Co688       O692   1.968       .  S
Co689       O692   2.064       .  S
Co690       O692   1.989   1_455  S
Co691       O692   2.031   1_545  S
C694        C769   1.464       .  S
C696        C756   1.469       .  S
C697        C698   1.349       .  D
C697       C1296   1.479       .  S
C697       C1336   1.481       .  S
C698        C816   1.476       .  S
C698        C856   1.476       .  S
C699        C700   1.368       .  D
C699        C806   1.496       .  S
C699        C919   1.487       .  S
C700       C1019   1.492       .  S
C700       C1099   1.504       .  S
C701        C702   1.351       .  D
C701       C1259   1.479       .  S
C701       C1329   1.483       .  S
C702        C796   1.485       .  S
C702        C956   1.476       .  S
C703        C704   1.359       .  D
C703       C1059   1.479       .  S
C703       C1089   1.498       .  S
C704        C789   1.499       .  S
C704        C899   1.474       .  S
C705        C706   1.359       .  D
C705       C1499   1.483       .  S
C705       C1689   1.494       .  S
C706        C849   1.493       .  S
C706        C876   1.483       .  S
C707        C708   1.351       .  D
C707       C1569   1.474       .  S
C707       C1699   1.483       .  S
C708        C836   1.484       .  S
C708        C906   1.475       .  S
C709        C710   1.356       .  D
C709       C1489   1.484       .  S
C709       C1609   1.478       .  S
C710        C889   1.487       .  S
C710        C949   1.488       .  S
C711        C712   1.357       .  D
C711       C1049   1.487       .  S
C711       C1159   1.484       .  S
C712        C766   1.479       .  S
C712        C869   1.492       .  S
C713        C714   1.348       .  D
C713       C1039   1.475       .  S
C713       C1116   1.483       .  S
C714       C1289   1.485       .  S
C714       C1376   1.472       .  S
C715        C716   1.355       .  D
C715       C1239   1.491       .  S
C715       C1369   1.477       .  S
C716       C1029   1.472       .  S
C716       C1186   1.497       .  S
C717        C718   1.355       .  D
C717       C1619   1.484       .  S
C717       C1656   1.481       .  S
C718       C1079   1.484       .  S
C718       C1209   1.479       .  S
C719        C720   1.343       .  D
C719       C1649   1.475       .  S
C719       C1679   1.469       .  S
C720       C1069   1.476       .  S
C720       C1139   1.472       .  S
C721        C722   1.363       .  D
C721       C1129   1.479       .  S
C721       C1169   1.497       .  S
C722       C1539   1.499       .  S
C722       C1669   1.496       .  S
C723        C724   1.366       .  D
C723       C1276   1.489       .  S
C723       C1396   1.490   1_455  S
C724        C759   1.493       .  S
C724        C826   1.492       .  S
C725        C726   1.351       .  D
C725       C1266   1.486       .  S
C725       C1429   1.471       .  S
C726        C989   1.474       .  S
C726       C1106   1.476   1_556  S
C727        C728   1.351       .  D
C727       C1479   1.493       .  S
C727       C1639   1.464       .  S
C728       C1319   1.468       .  S
C728       C1359   1.492       .  S
C729        C730   1.351       .  D
C729       C1579   1.487       .  S
C729       C1629   1.473       .  S
C730       C1306   1.473       .  S
C730       C1449   1.491       .  S
C731        C732   1.354       .  D
C731       C1349   1.485       .  S
C731       C1386   1.478       .  S
C732       C1469   1.489       .  S
C732       C1529   1.475       .  S
C733        C734   1.352       .  D
C733       C1249   1.473       .  S
C733       C1406   1.485       .  S
C734        C779   1.487       .  S
C734        C966   1.478       .  S
C735        C736   1.362       .  D
C735       C1009   1.494   1_565  S
C735       C1146   1.481       .  S
C736        C749   1.479   1_565  S
C736        C926   1.502       .  S
C737        C738   1.344       .  D
C737       C1226   1.461       .  S
C737       C1439   1.488       .  S
C738        C999   1.480       .  S
C738       C1199   1.464   1_554  S
C739        C740   1.353       .  D
C739       C1519   1.484       .  S
C739       C1559   1.473       .  S
C740       C1416   1.482       .  S
C740       C1459   1.480       .  S
C741        C742   1.357       .  D
C741        C936   1.481       .  S
C741        C979   1.479       .  S
C742       C1549   1.485       .  S
C742       C1589   1.486       .  S
C743        C744   1.350       .  D
C743       C1179   1.487       .  S
C743       C1219   1.475       .  S
C744       C1509   1.488       .  S
C744       C1599   1.472       .  S
C745        C746   1.409   1_565  A
C745        C750   1.397       .  A
C745        H752   1.083       .  S
C746        C747   1.408       .  A
C747        C748   1.395       .  A
C747        F754   1.357       .  S
C748        C749   1.401       .  A
C748        H753   1.083       .  S
C749        C750   1.402   1_545  A
C750        F751   1.357       .  S
C755        C756   1.399   1_655  A
C755        C760   1.396       .  A
C755        H762   1.084       .  S
C756        C757   1.408       .  A
C757        C758   1.403       .  A
C757        F764   1.357       .  S
C758        C759   1.403       .  A
C758        H763   1.083       .  S
C759        C760   1.410   1_455  A
C760        F761   1.356       .  S
C765        C766   1.401   1_545  A
C765        C770   1.392       .  A
C765        H772   1.083       .  S
C766        C767   1.404       .  A
C767        C768   1.397       .  A
C767        F774   1.356       .  S
C768        C769   1.404       .  A
C768        H773   1.083       .  S
C769        C770   1.403   1_565  A
C770        F771   1.357       .  S
C775        C776   1.407       .  A
C775        C780   1.403       .  A
C775        H782   1.083   1_455  S
C776        C777   1.412       .  A
C777        C778   1.396       .  A
C777        F784   1.358       .  S
C778        C779   1.400       .  A
C778        H783   1.084       .  S
C779        C780   1.407       .  A
C780        F781   1.356   1_455  S
C785        C786   1.407       .  A
C785        C790   1.408       .  A
C785        H792   1.079       .  S
C786        C787   1.407       .  A
C787        C788   1.404       .  A
C787        F794   1.354   1_565  S
C788        C789   1.404       .  A
C788        H793   1.083   1_565  S
C789        C790   1.407       .  A
C790        F791   1.357       .  S
C795        C796   1.404       .  A
C795        C800   1.401       .  A
C795        H802   1.082       .  S
C796        C797   1.407   1_455  A
C797        C798   1.400       .  A
C797        F804   1.358       .  S
C798        C799   1.403   1_655  A
C798        H803   1.084       .  S
C799        C800   1.402       .  A
C800        F801   1.354       .  S
C805        C806   1.404       .  A
C805        C810   1.403       .  A
C805        H812   1.083   1_565  S
C806        C807   1.409       .  A
C807        C808   1.405       .  A
C807        F814   1.356       .  S
C808        C809   1.406       .  A
C808        H813   1.083       .  S
C809        C810   1.412       .  A
C810        F811   1.357   1_565  S
C815        C816   1.402       .  A
C815        C820   1.393       .  A
C815        H822   1.082       .  S
C816        C817   1.399   1_455  A
C817        C818   1.392       .  A
C817        F824   1.357       .  S
C818        C819   1.410   1_655  A
C818        H823   1.083       .  S
C819        C820   1.405       .  A
C820        F821   1.355       .  S
C825        C826   1.399   1_655  A
C825        C830   1.394       .  A
C825        H832   1.081       .  S
C826        C827   1.412       .  A
C827        C828   1.411       .  A
C827        F834   1.357       .  S
C828        C829   1.404       .  A
C828        H833   1.083       .  S
C829        C830   1.408   1_455  A
C830        F831   1.353       .  S
C835        C836   1.400       .  A
C835        C840   1.397       .  A
C835        H842   1.083       .  S
C836        C837   1.406       .  A
C837        C838   1.396       .  A
C837        F844   1.356       .  S
C838        C839   1.402       .  A
C838        H843   1.083       .  S
C839        C840   1.408       .  A
C840        F841   1.356       .  S
C845        C846   1.404       .  A
C845        C850   1.402       .  A
C845        H852   1.082       .  S
C846        C847   1.407       .  A
C847        C848   1.404       .  A
C847        F854   1.357       .  S
C848        C849   1.406       .  A
C848        H853   1.084       .  S
C849        C850   1.405       .  A
C850        F851   1.356       .  S
C855        C856   1.400       .  A
C855        C860   1.394       .  A
C855        H862   1.083       .  S
C856        C857   1.404   1_455  A
C857        C858   1.398       .  A
C857        F864   1.357       .  S
C858        C859   1.407   1_655  A
C858        H863   1.083       .  S
C859        C860   1.410       .  A
C860        F861   1.357       .  S
C865        C866   1.411       .  A
C865        C870   1.408   1_565  A
C865        H872   1.084   1_565  S
C866        C867   1.403       .  A
C867        C868   1.399       .  A
C867        F874   1.357       .  S
C868        C869   1.407       .  A
C868        H873   1.083       .  S
C869        C870   1.405   1_565  A
C870        F871   1.357       .  S
C875        C876   1.406       .  A
C875        C880   1.402       .  A
C875        H882   1.082       .  S
C876        C877   1.401       .  A
C877        C878   1.397       .  A
C877        F884   1.358       .  S
C878        C879   1.410       .  A
C878        H883   1.084       .  S
C879        C880   1.404       .  A
C880        F881   1.357       .  S
C885        C886   1.401       .  A
C885        C890   1.399       .  A
C885        H892   1.083       .  S
C886        C887   1.405       .  A
C887        C888   1.396       .  A
C887        F894   1.356       .  S
C888        C889   1.402       .  A
C888        H893   1.084       .  S
C889        C890   1.407       .  A
C890        F891   1.355       .  S
C895        C896   1.407       .  A
C895        C900   1.398       .  A
C895        H902   1.083   1_565  S
C896        C897   1.411       .  A
C897        C898   1.390       .  A
C897        F904   1.358       .  S
C898        C899   1.397       .  A
C898        H903   1.082       .  S
C899        C900   1.402       .  A
C900        F901   1.357   1_565  S
C905        C906   1.401       .  A
C905        C910   1.394       .  A
C905        H912   1.084       .  S
C906        C907   1.403       .  A
C907        C908   1.397       .  A
C907        F914   1.357       .  S
C908        C909   1.407       .  A
C908        H913   1.083       .  S
C909        C910   1.409       .  A
C910        F911   1.358       .  S
C915        C916   1.405       .  A
C915        C920   1.401       .  A
C915        H922   1.082       .  S
C916        C917   1.410       .  A
C917        C918   1.397       .  A
C917        F924   1.358   1_565  S
C918        C919   1.403       .  A
C918        H923   1.082       .  S
C919        C920   1.407       .  A
C920        F921   1.356       .  S
C925        C926   1.411       .  A
C925        C930   1.401       .  A
C925        H932   1.082       .  S
C926        C927   1.406   1_565  A
C927        C928   1.407   1_545  A
C927        F934   1.356       .  S
C928        C929   1.411       .  A
C928        H933   1.083   1_565  S
C929        C930   1.403       .  A
C930        F931   1.358       .  S
C935        C936   1.401       .  A
C935        C940   1.392       .  A
C935        H942   1.084       .  S
C936        C937   1.408       .  A
C937        C938   1.399       .  A
C937        F944   1.355       .  S
C938        C939   1.399       .  A
C938        H943   1.083       .  S
C939        C940   1.402       .  A
C940        F941   1.357       .  S
C945        C946   1.403       .  A
C945        C950   1.400       .  A
C945        H952   1.083       .  S
C946        C947   1.401       .  A
C947        C948   1.396       .  A
C947        F954   1.356       .  S
C948        C949   1.405       .  A
C948        H953   1.079       .  S
C949        C950   1.407       .  A
C950        F951   1.356       .  S
C955        C956   1.399       .  A
C955        C960   1.391       .  A
C955        H962   1.083       .  S
C956        C957   1.404   1_455  A
C957        C958   1.397       .  A
C957        F964   1.356       .  S
C958        C959   1.405   1_655  A
C958        H963   1.083       .  S
C959        C960   1.408       .  A
C960        F961   1.358       .  S
C965        C966   1.400   1_655  A
C965        C970   1.387       .  A
C965        H972   1.082       .  S
C966        C967   1.407       .  A
C967        C968   1.402       .  A
C967        F974   1.356       .  S
C968        C969   1.401       .  A
C968        H973   1.081       .  S
C969        C970   1.402   1_455  A
C970        F971   1.356       .  S
C975        C976   1.401       .  A
C975        C980   1.396       .  A
C975        H982   1.083       .  S
C976        C977   1.414       .  A
C977        C978   1.389       .  A
C977        F984   1.358       .  S
C978        C979   1.397       .  A
C978        H983   1.083       .  S
C979        C980   1.406       .  A
C980        F981   1.355       .  S
C985        C986   1.405   1_556  A
C985        C990   1.392       .  A
C985        H992   1.080       .  S
C986        C987   1.399       .  A
C987        C988   1.400       .  A
C987        F994   1.356       .  S
C988        C989   1.408   1_554  A
C988        H993   1.082       .  S
C989        C990   1.399       .  A
C990        F991   1.358       .  S
C995        C996   1.407       .  A
C995       C1000   1.390       .  A
C995       H1002   1.084       .  S
C996        C997   1.407   1_554  A
C997        C998   1.401       .  A
C997       F1004   1.357       .  S
C998        C999   1.404   1_556  A
C998       H1003   1.082       .  S
C999       C1000   1.400       .  A
C1000      F1001   1.358       .  S
C1005      C1006   1.407   1_545  A
C1005      C1010   1.410       .  A
C1005      H1012   1.083       .  S
C1006      C1007   1.411       .  A
C1007      C1008   1.393       .  A
C1007      F1014   1.358       .  S
C1008      C1009   1.400   1_565  A
C1008      H1013   1.084       .  S
C1009      C1010   1.410       .  A
C1010      F1011   1.356       .  S
C1015      C1016   1.407       .  A
C1015      C1020   1.407       .  A
C1015      H1022   1.083       .  S
C1016      C1017   1.406       .  A
C1017      C1018   1.397       .  A
C1017      F1024   1.357   1_565  S
C1018      C1019   1.404       .  A
C1018      H1023   1.084   1_565  S
C1019      C1020   1.407       .  A
C1020      F1021   1.356       .  S
C1025      C1026   1.401   1_554  A
C1025      C1030   1.388       .  A
C1025      H1032   1.083       .  S
C1026      C1027   1.399       .  A
C1027      C1028   1.395       .  A
C1027      F1034   1.352       .  S
C1028      C1029   1.401       .  A
C1028      H1033   1.082       .  S
C1029      C1030   1.400   1_556  A
C1030      F1031   1.358       .  S
C1035      C1036   1.403       .  A
C1035      C1040   1.394       .  A
C1035      H1042   1.083       .  S
C1036      C1037   1.413   1_556  A
C1037      C1038   1.394       .  A
C1037      F1044   1.358       .  S
C1038      C1039   1.398   1_554  A
C1038      H1043   1.083       .  S
C1039      C1040   1.404       .  A
C1040      F1041   1.357       .  S
C1045      C1046   1.408   1_545  A
C1045      C1050   1.406       .  A
C1045      H1052   1.083       .  S
C1046      C1047   1.407       .  A
C1047      C1048   1.392       .  A
C1047      F1054   1.354       .  S
C1048      C1049   1.398       .  A
C1048      H1053   1.084       .  S
C1049      C1050   1.406   1_565  A
C1050      F1051   1.357       .  S
C1055      C1056   1.409       .  A
C1055      C1060   1.398       .  A
C1055      H1062   1.083   1_565  S
C1056      C1057   1.407       .  A
C1057      C1058   1.395       .  A
C1057      F1064   1.357       .  S
C1058      C1059   1.403       .  A
C1058      H1063   1.082       .  S
C1059      C1060   1.402       .  A
C1060      F1061   1.357   1_565  S
C1065      C1066   1.403       .  A
C1065      C1070   1.392       .  A
C1065      H1072   1.084       .  S
C1066      C1067   1.407       .  A
C1067      C1068   1.397       .  A
C1067      F1074   1.355       .  S
C1068      C1069   1.400       .  A
C1068      H1073   1.083       .  S
C1069      C1070   1.403       .  A
C1070      F1071   1.358       .  S
C1075      C1076   1.398       .  A
C1075      C1080   1.395       .  A
C1075      H1082   1.083       .  S
C1076      C1077   1.407       .  A
C1077      C1078   1.399       .  A
C1077      F1084   1.358       .  S
C1078      C1079   1.403       .  A
C1078      H1083   1.083       .  S
C1079      C1080   1.408       .  A
C1080      F1081   1.356       .  S
C1085      C1086   1.407       .  A
C1085      C1090   1.407       .  A
C1085      H1092   1.083       .  S
C1086      C1087   1.407       .  A
C1087      C1088   1.400       .  A
C1087      F1094   1.355   1_565  S
C1088      C1089   1.402       .  A
C1088      H1093   1.083   1_565  S
C1089      C1090   1.407       .  A
C1090      F1091   1.356       .  S
C1095      C1096   1.408       .  A
C1095      C1100   1.406       .  A
C1095      H1102   1.083       .  S
C1096      C1097   1.415       .  A
C1097      C1098   1.406       .  A
C1097      F1104   1.357   1_565  S
C1098      C1099   1.405       .  A
C1098      H1103   1.081       .  S
C1099      C1100   1.409       .  A
C1100      F1101   1.357       .  S
C1105      C1106   1.400   1_556  A
C1105      C1110   1.392       .  A
C1105      H1112   1.083       .  S
C1106      C1107   1.402       .  A
C1107      C1108   1.392       .  A
C1107      F1114   1.356       .  S
C1108      C1109   1.405       .  A
C1108      H1113   1.083       .  S
C1109      C1110   1.408   1_554  A
C1110      F1111   1.358       .  S
C1115      C1116   1.402       .  A
C1115      C1120   1.401       .  A
C1115      H1122   1.083       .  S
C1116      C1117   1.405   1_556  A
C1117      C1118   1.395       .  A
C1117      F1124   1.358       .  S
C1118      C1119   1.400   1_554  A
C1118      H1123   1.084       .  S
C1119      C1120   1.405       .  A
C1120      F1121   1.357       .  S
C1125      C1126   1.404       .  A
C1125      C1130   1.390       .  A
C1125      H1132   1.084       .  S
C1126      C1127   1.407       .  A
C1127      C1128   1.401       .  A
C1127      F1134   1.357       .  S
C1128      C1129   1.403       .  A
C1128      H1133   1.082       .  S
C1129      C1130   1.401       .  A
C1130      F1131   1.357       .  S
C1135      C1136   1.398       .  A
C1135      C1140   1.391       .  A
C1135      H1142   1.084       .  S
C1136      C1137   1.401       .  A
C1137      C1138   1.392       .  A
C1137      F1144   1.358       .  S
C1138      C1139   1.402       .  A
C1138      H1143   1.081       .  S
C1139      C1140   1.404       .  A
C1140      F1141   1.357       .  S
C1145      C1146   1.403       .  A
C1145      C1150   1.400       .  A
C1145      H1152   1.083       .  S
C1146      C1147   1.407   1_565  A
C1147      C1148   1.396       .  A
C1147      F1154   1.356       .  S
C1148      C1149   1.398   1_545  A
C1148      H1153   1.083       .  S
C1149      C1150   1.407       .  A
C1150      F1151   1.358       .  S
C1155      C1156   1.412       .  A
C1155      C1160   1.403       .  A
C1155      H1162   1.083       .  S
C1156      C1157   1.408   1_565  A
C1157      C1158   1.398       .  A
C1157      F1164   1.358       .  S
C1158      C1159   1.404   1_545  A
C1158      H1163   1.083       .  S
C1159      C1160   1.402       .  A
C1160      F1161   1.357       .  S
C1165      C1166   1.404       .  A
C1165      C1170   1.401       .  A
C1165      H1172   1.083       .  S
C1166      C1167   1.409       .  A
C1167      C1168   1.408       .  A
C1167      F1174   1.357       .  S
C1168      C1169   1.406       .  A
C1168      H1173   1.083       .  S
C1169      C1170   1.408       .  A
C1170      F1171   1.357       .  S
C1175      C1176   1.405       .  A
C1175      C1180   1.398       .  A
C1175      H1182   1.083       .  S
C1176      C1177   1.414       .  A
C1177      C1178   1.399       .  A
C1177      F1184   1.357       .  S
C1178      C1179   1.400       .  A
C1178      H1183   1.083       .  S
C1179      C1180   1.405       .  A
C1180      F1181   1.357       .  S
C1185      C1186   1.405   1_554  A
C1185      C1190   1.405       .  A
C1185      H1192   1.083       .  S
C1186      C1187   1.412       .  A
C1187      C1188   1.399       .  A
C1187      F1194   1.356       .  S
C1188      C1189   1.400       .  A
C1188      H1193   1.083       .  S
C1189      C1190   1.412   1_556  A
C1190      F1191   1.358       .  S
C1195      C1196   1.403       .  A
C1195      C1200   1.387       .  A
C1195      H1202   1.083       .  S
C1196      C1197   1.409   1_556  A
C1197      C1198   1.394       .  A
C1197      F1204   1.357       .  S
C1198      C1199   1.398   1_554  A
C1198      H1203   1.083       .  S
C1199      C1200   1.401       .  A
C1200      F1201   1.357       .  S
C1205      C1206   1.406       .  A
C1205      C1210   1.387       .  A
C1205      H1212   1.084       .  S
C1206      C1207   1.404       .  A
C1207      C1208   1.402       .  A
C1207      F1214   1.357       .  S
C1208      C1209   1.406       .  A
C1208      H1213   1.081       .  S
C1209      C1210   1.400       .  A
C1210      F1211   1.358       .  S
C1215      C1216   1.398       .  A
C1215      C1220   1.392       .  A
C1215      H1222   1.084       .  S
C1216      C1217   1.407       .  A
C1217      C1218   1.399       .  A
C1217      F1224   1.357       .  S
C1218      C1219   1.400       .  A
C1218      H1223   1.083       .  S
C1219      C1220   1.405       .  A
C1220      F1221   1.357       .  S
C1225      C1226   1.396       .  A
C1225      C1230   1.390       .  A
C1225      H1232   1.083       .  S
C1226      C1227   1.401   1_554  A
C1227      C1228   1.386       .  A
C1227      F1234   1.358       .  S
C1228      C1229   1.399   1_556  A
C1228      H1233   1.084       .  S
C1229      C1230   1.404       .  A
C1230      F1231   1.352       .  S
C1235      C1236   1.403       .  A
C1235      C1240   1.398       .  A
C1235      H1242   1.082       .  S
C1236      C1237   1.406   1_556  A
C1237      C1238   1.401       .  A
C1237      F1244   1.357       .  S
C1238      C1239   1.403   1_554  A
C1238      H1243   1.082       .  S
C1239      C1240   1.404       .  A
C1240      F1241   1.357       .  S
C1245      C1246   1.406       .  A
C1245      C1250   1.388       .  A
C1245      H1252   1.084   1_455  S
C1246      C1247   1.406       .  A
C1247      C1248   1.399       .  A
C1247      F1254   1.356       .  S
C1248      C1249   1.403       .  A
C1248      H1253   1.082       .  S
C1249      C1250   1.401       .  A
C1250      F1251   1.358   1_455  S
C1255      C1256   1.403       .  A
C1255      C1260   1.406       .  A
C1255      H1262   1.082       .  S
C1256      C1257   1.404   1_455  A
C1257      C1258   1.391       .  A
C1257      F1264   1.350       .  S
C1258      C1259   1.397   1_655  A
C1258      H1263   1.083       .  S
C1259      C1260   1.408       .  A
C1260      F1261   1.357       .  S
C1265      C1266   1.397   1_554  A
C1265      C1270   1.393   1_554  A
C1265      H1272   1.085       .  S
C1266      C1267   1.411       .  A
C1267      C1268   1.400       .  A
C1267      F1274   1.356       .  S
C1268      C1269   1.402       .  A
C1268      H1273   1.085       .  S
C1269      C1270   1.417       .  A
C1270      F1271   1.358   1_556  S
C1275      C1276   1.410       .  A
C1275      C1280   1.402       .  A
C1275      H1282   1.083       .  S
C1276      C1277   1.402   1_455  A
C1277      C1278   1.388       .  A
C1277      F1284   1.351       .  S
C1278      C1279   1.404   1_655  A
C1278      H1283   1.084       .  S
C1279      C1280   1.402       .  A
C1280      F1281   1.357       .  S
C1285      C1286   1.407   1_556  A
C1285      C1290   1.404       .  A
C1285      H1292   1.083       .  S
C1286      C1287   1.407       .  A
C1287      C1288   1.394       .  A
C1287      F1294   1.358       .  S
C1288      C1289   1.400   1_554  A
C1288      H1293   1.082       .  S
C1289      C1290   1.406       .  A
C1290      F1291   1.357       .  S
C1295      C1296   1.402   1_655  A
C1295      C1300   1.395       .  A
C1295      H1302   1.083       .  S
C1296      C1297   1.405       .  A
C1297      C1298   1.394       .  A
C1297      F1304   1.356       .  S
C1298      C1299   1.401       .  A
C1298      H1303   1.084       .  S
C1299      C1300   1.403   1_455  A
C1300      F1301   1.358       .  S
C1305      C1306   1.401       .  A
C1305      C1310   1.392       .  A
C1305      H1312   1.082       .  S
C1306      C1307   1.401       .  A
C1307      C1308   1.393       .  A
C1307      F1314   1.357       .  S
C1308      C1309   1.402       .  A
C1308      H1313   1.084       .  S
C1309      C1310   1.401       .  A
C1310      F1311   1.358       .  S
C1315      C1316   1.400       .  A
C1315      C1320   1.399       .  A
C1315      H1322   1.083       .  S
C1316      C1317   1.400       .  A
C1317      C1318   1.387       .  A
C1317      F1324   1.357       .  S
C1318      C1319   1.400       .  A
C1318      H1323   1.083       .  S
C1319      C1320   1.405       .  A
C1320      F1321   1.356       .  S
C1325      C1326   1.408   1_455  A
C1325      C1330   1.399       .  A
C1325      H1332   1.083       .  S
C1326      C1327   1.408       .  A
C1327      C1328   1.395       .  A
C1327      F1334   1.358       .  S
C1328      C1329   1.402   1_655  A
C1328      H1333   1.083       .  S
C1329      C1330   1.402       .  A
C1330      F1331   1.357       .  S
C1335      C1336   1.401   1_655  A
C1335      C1340   1.400       .  A
C1335      H1342   1.083       .  S
C1336      C1337   1.405       .  A
C1337      C1338   1.398       .  A
C1337      F1344   1.357       .  S
C1338      C1339   1.404       .  A
C1338      H1343   1.083       .  S
C1339      C1340   1.410   1_455  A
C1340      F1341   1.358       .  S
C1345      C1346   1.406       .  A
C1345      C1350   1.407       .  A
C1345      H1352   1.081       .  S
C1346      C1347   1.413       .  A
C1347      C1348   1.393       .  A
C1347      F1354   1.358       .  S
C1348      C1349   1.398       .  A
C1348      H1353   1.084       .  S
C1349      C1350   1.407       .  A
C1350      F1351   1.356       .  S
C1355      C1356   1.405       .  A
C1355      C1360   1.397       .  A
C1355      H1362   1.084       .  S
C1356      C1357   1.407       .  A
C1357      C1358   1.403       .  A
C1357      F1364   1.356       .  S
C1358      C1359   1.404       .  A
C1358      H1363   1.083       .  S
C1359      C1360   1.403       .  A
C1360      F1361   1.357       .  S
C1365      C1366   1.409   1_556  A
C1365      C1370   1.400       .  A
C1365      H1372   1.083       .  S
C1366      C1367   1.410       .  A
C1367      C1368   1.394       .  A
C1367      F1374   1.358       .  S
C1368      C1369   1.401   1_554  A
C1368      H1373   1.083       .  S
C1369      C1370   1.401       .  A
C1370      F1371   1.357       .  S
C1375      C1376   1.398       .  A
C1375      C1380   1.391       .  A
C1375      H1382   1.084       .  S
C1376      C1377   1.404   1_556  A
C1377      C1378   1.398       .  A
C1377      F1384   1.356       .  S
C1378      C1379   1.400   1_554  A
C1378      H1383   1.082       .  S
C1379      C1380   1.404       .  A
C1380      F1381   1.356       .  S
C1385      C1386   1.402       .  A
C1385      C1390   1.392       .  A
C1385      H1392   1.082       .  S
C1386      C1387   1.405       .  A
C1387      C1388   1.397       .  A
C1387      F1394   1.357       .  S
C1388      C1389   1.402       .  A
C1388      H1393   1.084       .  S
C1389      C1390   1.401       .  A
C1390      F1391   1.358       .  S
C1395      C1396   1.399   1_455  A
C1395      C1400   1.402       .  A
C1395      H1402   1.083       .  S
C1396      C1397   1.411       .  A
C1397      C1398   1.401       .  A
C1397      F1404   1.357       .  S
C1398      C1399   1.403       .  A
C1398      H1403   1.083       .  S
C1399      C1400   1.418   1_655  A
C1400      F1401   1.357       .  S
C1405      C1406   1.402       .  A
C1405      C1410   1.400       .  A
C1405      H1412   1.083   1_455  S
C1406      C1407   1.405       .  A
C1407      C1408   1.396       .  A
C1407      F1414   1.357       .  S
C1408      C1409   1.404       .  A
C1408      H1413   1.083       .  S
C1409      C1410   1.413       .  A
C1410      F1411   1.358   1_455  S
C1415      C1416   1.405       .  A
C1415      C1420   1.405       .  A
C1415      H1422   1.083       .  S
C1416      C1417   1.405       .  A
C1417      C1418   1.391       .  A
C1417      F1424   1.358       .  S
C1418      C1419   1.399       .  A
C1418      H1423   1.084       .  S
C1419      C1420   1.405       .  A
C1420      F1421   1.357       .  S
C1425      C1426   1.404       .  A
C1425      C1430   1.385       .  A
C1425      H1432   1.083       .  S
C1426      C1427   1.409   1_554  A
C1427      C1428   1.396       .  A
C1427      F1434   1.357       .  S
C1428      C1429   1.400       .  A
C1428      H1433   1.082       .  S
C1429      C1430   1.400   1_556  A
C1430      F1431   1.358       .  S
C1435      C1436   1.398       .  A
C1435      C1440   1.397       .  A
C1435      H1442   1.083       .  S
C1436      C1437   1.411   1_554  A
C1437      C1438   1.395       .  A
C1437      F1444   1.358       .  S
C1438      C1439   1.400   1_556  A
C1438      H1443   1.082       .  S
C1439      C1440   1.411       .  A
C1440      F1441   1.357       .  S
C1445      C1446   1.402       .  A
C1445      C1450   1.401       .  A
C1445      H1452   1.084       .  S
C1446      C1447   1.405       .  A
C1447      C1448   1.401       .  A
C1447      F1454   1.357       .  S
C1448      C1449   1.405       .  A
C1448      H1453   1.083       .  S
C1449      C1450   1.408       .  A
C1450      F1451   1.355       .  S
C1455      C1456   1.410       .  A
C1455      C1460   1.386       .  A
C1455      H1462   1.083       .  S
C1456      C1457   1.402       .  A
C1457      C1458   1.396       .  A
C1457      F1464   1.357       .  S
C1458      C1459   1.409       .  A
C1458      H1463   1.083       .  S
C1459      C1460   1.401       .  A
C1460      F1461   1.356       .  S
C1465      C1466   1.398       .  A
C1465      C1470   1.398       .  A
C1465      H1472   1.083       .  S
C1466      C1467   1.411       .  A
C1467      C1468   1.394       .  A
C1467      F1474   1.358       .  S
C1468      C1469   1.400       .  A
C1468      H1473   1.083       .  S
C1469      C1470   1.412       .  A
C1470      F1471   1.356       .  S
C1475      C1476   1.405       .  A
C1475      C1480   1.407       .  A
C1475      H1482   1.083       .  S
C1476      C1477   1.406       .  A
C1477      C1478   1.400       .  A
C1477      F1484   1.357       .  S
C1478      C1479   1.404       .  A
C1478      H1483   1.083       .  S
C1479      C1480   1.409       .  A
C1480      F1481   1.357       .  S
C1485      C1486   1.403       .  A
C1485      C1490   1.400       .  A
C1485      H1492   1.083       .  S
C1486      C1487   1.413       .  A
C1487      C1488   1.396       .  A
C1487      F1494   1.358       .  S
C1488      C1489   1.399       .  A
C1488      H1493   1.084       .  S
C1489      C1490   1.409       .  A
C1490      F1491   1.356       .  S
C1495      C1496   1.405       .  A
C1495      C1500   1.397       .  A
C1495      H1502   1.083       .  S
C1496      C1497   1.413       .  A
C1497      C1498   1.400       .  A
C1497      F1504   1.358       .  S
C1498      C1499   1.401       .  A
C1498      H1503   1.083       .  S
C1499      C1500   1.404       .  A
C1500      F1501   1.357       .  S
C1505      C1506   1.411       .  A
C1505      C1510   1.399       .  A
C1505      H1512   1.083       .  S
C1506      C1507   1.408       .  A
C1507      C1508   1.401       .  A
C1507      F1514   1.357       .  S
C1508      C1509   1.406       .  A
C1508      H1513   1.083       .  S
C1509      C1510   1.402       .  A
C1510      F1511   1.357       .  S
C1515      C1516   1.398       .  A
C1515      C1520   1.395       .  A
C1515      H1522   1.083       .  S
C1516      C1517   1.409       .  A
C1517      C1518   1.398       .  A
C1517      F1524   1.357       .  S
C1518      C1519   1.400       .  A
C1518      H1523   1.083       .  S
C1519      C1520   1.408       .  A
C1520      F1521   1.356       .  S
C1525      C1526   1.403       .  A
C1525      C1530   1.393       .  A
C1525      H1532   1.083       .  S
C1526      C1527   1.413       .  A
C1527      C1528   1.397       .  A
C1527      F1534   1.358       .  S
C1528      C1529   1.399       .  A
C1528      H1533   1.083       .  S
C1529      C1530   1.403       .  A
C1530      F1531   1.358       .  S
C1535      C1536   1.406       .  A
C1535      C1540   1.407       .  A
C1535      H1542   1.084       .  S
C1536      C1537   1.408       .  A
C1537      C1538   1.400       .  A
C1537      F1544   1.358       .  S
C1538      C1539   1.402       .  A
C1538      H1543   1.083       .  S
C1539      C1540   1.409       .  A
C1540      F1541   1.356       .  S
C1545      C1546   1.407       .  A
C1545      C1550   1.392       .  A
C1545      H1552   1.084       .  S
C1546      C1547   1.404       .  A
C1547      C1548   1.404       .  A
C1547      F1554   1.357       .  S
C1548      C1549   1.407       .  A
C1548      H1553   1.082       .  S
C1549      C1550   1.400       .  A
C1550      F1551   1.358       .  S
C1555      C1556   1.404       .  A
C1555      C1560   1.397       .  A
C1555      H1562   1.084       .  S
C1556      C1557   1.399       .  A
C1557      C1558   1.392       .  A
C1557      F1564   1.357       .  S
C1558      C1559   1.404       .  A
C1558      H1563   1.083       .  S
C1559      C1560   1.403       .  A
C1560      F1561   1.357       .  S
C1565      C1566   1.402       .  A
C1565      C1570   1.392       .  A
C1565      H1572   1.084       .  S
C1566      C1567   1.404       .  A
C1567      C1568   1.395       .  A
C1567      F1574   1.358       .  S
C1568      C1569   1.401       .  A
C1568      H1573   1.083       .  S
C1569      C1570   1.403       .  A
C1570      F1571   1.357       .  S
C1575      C1576   1.402       .  A
C1575      C1580   1.400       .  A
C1575      H1582   1.083       .  S
C1576      C1577   1.405       .  A
C1577      C1578   1.398       .  A
C1577      F1584   1.358       .  S
C1578      C1579   1.401       .  A
C1578      H1583   1.083       .  S
C1579      C1580   1.406       .  A
C1580      F1581   1.356       .  S
C1585      C1586   1.403       .  A
C1585      C1590   1.403       .  A
C1585      H1592   1.083       .  S
C1586      C1587   1.406       .  A
C1587      C1588   1.389       .  A
C1587      F1594   1.358       .  S
C1588      C1589   1.400       .  A
C1588      H1593   1.081       .  S
C1589      C1590   1.409       .  A
C1590      F1591   1.356       .  S
C1595      C1596   1.404       .  A
C1595      C1600   1.396       .  A
C1595      H1602   1.084       .  S
C1596      C1597   1.399       .  A
C1597      C1598   1.391       .  A
C1597      F1604   1.358       .  S
C1598      C1599   1.403       .  A
C1598      H1603   1.083       .  S
C1599      C1600   1.401       .  A
C1600      F1601   1.357       .  S
C1605      C1606   1.402       .  A
C1605      C1610   1.397       .  A
C1605      H1612   1.083       .  S
C1606      C1607   1.406       .  A
C1607      C1608   1.391       .  A
C1607      F1614   1.358       .  S
C1608      C1609   1.400       .  A
C1608      H1613   1.081       .  S
C1609      C1610   1.406       .  A
C1610      F1611   1.357       .  S
C1615      C1616   1.404       .  A
C1615      C1620   1.398       .  A
C1615      H1622   1.083       .  S
C1616      C1617   1.400       .  A
C1617      C1618   1.394       .  A
C1617      F1624   1.358       .  S
C1618      C1619   1.407       .  A
C1618      H1623   1.082       .  S
C1619      C1620   1.405       .  A
C1620      F1621   1.356       .  S
C1625      C1626   1.400       .  A
C1625      C1630   1.393       .  A
C1625      H1632   1.084       .  S
C1626      C1627   1.400       .  A
C1627      C1628   1.395       .  A
C1627      F1634   1.357       .  S
C1628      C1629   1.403       .  A
C1628      H1633   1.082       .  S
C1629      C1630   1.404       .  A
C1630      F1631   1.355       .  S
C1635      C1636   1.398       .  A
C1635      C1640   1.389       .  A
C1635      H1642   1.084       .  S
C1636      C1637   1.402       .  A
C1637      C1638   1.386       .  A
C1637      F1644   1.357       .  S
C1638      C1639   1.397       .  A
C1638      H1643   1.082       .  S
C1639      C1640   1.403       .  A
C1640      F1641   1.356       .  S
C1645      C1646   1.404       .  A
C1645      C1650   1.391       .  A
C1645      H1652   1.083       .  S
C1646      C1647   1.406       .  A
C1647      C1648   1.397       .  A
C1647      F1654   1.356       .  S
C1648      C1649   1.402       .  A
C1648      H1653   1.083       .  S
C1649      C1650   1.401       .  A
C1650      F1651   1.357       .  S
C1655      C1656   1.399       .  A
C1655      C1660   1.391       .  A
C1655      H1662   1.084       .  S
C1656      C1657   1.405       .  A
C1657      C1658   1.400       .  A
C1657      F1664   1.356       .  S
C1658      C1659   1.407       .  A
C1658      H1663   1.083       .  S
C1659      C1660   1.411       .  A
C1660      F1661   1.358       .  S
C1665      C1666   1.408       .  A
C1665      C1670   1.402       .  A
C1665      H1672   1.083       .  S
C1666      C1667   1.403       .  A
C1667      C1668   1.399       .  A
C1667      F1674   1.358       .  S
C1668      C1669   1.409       .  A
C1668      H1673   1.081       .  S
C1669      C1670   1.407       .  A
C1670      F1671   1.355       .  S
C1675      C1676   1.404       .  A
C1675      C1680   1.395       .  A
C1675      H1682   1.083       .  S
C1676      C1677   1.408       .  A
C1677      C1678   1.389       .  A
C1677      F1684   1.358       .  S
C1678      C1679   1.398       .  A
C1678      H1683   1.083       .  S
C1679      C1680   1.402       .  A
C1680      F1681   1.356       .  S
C1685      C1686   1.404       .  A
C1685      C1690   1.399       .  A
C1685      H1692   1.084       .  S
C1686      C1687   1.405       .  A
C1687      C1688   1.407       .  A
C1687      F1694   1.357       .  S
C1688      C1689   1.407       .  A
C1688      H1693   1.082       .  S
C1689      C1690   1.406       .  A
C1690      F1691   1.358       .  S
C1695      C1696   1.407       .  A
C1695      C1700   1.406       .  A
C1695      H1702   1.083       .  S
C1696      C1697   1.411       .  A
C1697      C1698   1.393       .  A
C1697      F1704   1.358       .  S
C1698      C1699   1.399       .  A
C1698      H1703   1.083       .  S
C1699      C1700   1.406       .  A
C1700      F1701   1.357       .  S
