geometry optimzed in LAMMPS
_audit_creation_date              2020-11-30 
_audit_creation_method            'lammps2cif' 
_symmetry_space_group_name_H-M    'P1' 
_symmetry_Int_Tables_number       1 
_symmetry_cell_setting            triclinic 
loop_ 
_symmetry_equiv_pos_as_xyz 
  x,y,z 
_cell_length_a                    48.178637754430326 
_cell_length_b                    48.205114418343555 
_cell_length_c                    44.17083008248491 
_cell_angle_alpha                 89.8418608006636 
_cell_angle_beta                  89.99437663798624 
_cell_angle_gamma                 90.13011889468349 
loop_ 
_atom_site_label 
_atom_site_type_symbol 
_atom_site_fract_x 
_atom_site_fract_y 
_atom_site_fract_z 
_atom_site_charge 
N1          N  0.67880357  0.55841726  0.25183802    -0.27040
N2          N  0.65657726  0.54247727  0.25323710    -0.34900
C3          C  0.63383461  0.55820962  0.25440608     0.01300
C4          C  0.64173469  0.58578967  0.25404130     0.07320
C5          C  0.67060374  0.58523531  0.25215957    -0.05780
H6          H  0.61297024  0.54994105  0.25549279     0.07990
H7          H  0.68457021  0.60282352  0.25186279     0.09190
Cu8        Cu  0.65725654  0.50005359  0.25446181     0.44170
Cu9        Cu  0.71794159  0.54014041  0.25047463     0.41990
Cu10       Cu  0.71759478  0.46077999  0.24763004     0.43880
N11         N  0.65649050  0.45764600  0.25299844    -0.34430
N12         N  0.67872070  0.44203745  0.24982203    -0.28680
C13         C  0.67058446  0.41528095  0.24738472    -0.04780
C14         C  0.64175276  0.41448812  0.24872995     0.07430
C15         C  0.63376237  0.44172622  0.25270218     0.01230
H16         H  0.68441957  0.39797245  0.24368947     0.08880
H17         H  0.61284926  0.44964684  0.25463697     0.07960
N18         N  0.75231531  0.48663257  0.24821078    -0.35880
N19         N  0.75251764  0.51411319  0.24953660    -0.28060
C20         C  0.77901358  0.52291010  0.25032325    -0.03300
C21         C  0.79640830  0.50005544  0.24952983     0.05310
C22         C  0.77863113  0.47746338  0.24801636     0.03410
H23         H  0.78506797  0.54447982  0.25177054     0.08510
H24         H  0.78415392  0.45580427  0.24647799     0.07340
N25         N  0.41326596  0.70720988  0.24837437    -0.27040
N26         N  0.42890434  0.68487856  0.24661315    -0.34900
C27         C  0.41281152  0.66232074  0.24536736     0.01300
C28         C  0.38535969  0.67053687  0.24612695     0.07320
C29         C  0.38632021  0.69931865  0.24828753    -0.05780
H30         H  0.42068989  0.64137671  0.24378385     0.07990
H31         H  0.36890816  0.71343543  0.24876826     0.09190
Cu32       Cu  0.47137416  0.68546620  0.24489625     0.44170
Cu33       Cu  0.43205093  0.74603559  0.24951350     0.41990
Cu34       Cu  0.51134632  0.74599238  0.25224398     0.43880
N35         N  0.51384513  0.68479940  0.24629300    -0.34430
N36         N  0.52964250  0.70693943  0.24973411    -0.28680
C37         C  0.55634502  0.69865614  0.25223178    -0.04780
C38         C  0.55691304  0.66984287  0.25062735     0.07430
C39         C  0.52959487  0.66202201  0.24645063     0.01230
H40         H  0.57376577  0.71236644  0.25619015     0.08880
H41         H  0.52148909  0.64117623  0.24435589     0.07960
N42         N  0.48550039  0.78069409  0.25202028    -0.35880
N43         N  0.45801583  0.78060305  0.25057471    -0.28060
C44         C  0.44894836  0.80692581  0.24997287    -0.03300
C45         C  0.47161243  0.82463911  0.25137856     0.05310
C46         C  0.49440853  0.80714302  0.25255661     0.03410
H47         H  0.42730570  0.81244672  0.24802287     0.08510
H48         H  0.51603370  0.81307755  0.25382291     0.07340
N49         N  0.41371438  0.29288705  0.25091038    -0.27040
N50         N  0.42958693  0.31517043  0.24992332    -0.34900
C51         C  0.41379365  0.33788644  0.25063504     0.01300
C52         C  0.38630115  0.32984580  0.25233937     0.07320
C53         C  0.38689022  0.30098015  0.25223430    -0.05780
H54         H  0.42191611  0.35882448  0.25034593     0.07990
H55         H  0.36937048  0.28701323  0.25408627     0.09190
Cu56       Cu  0.47202303  0.31437878  0.24953631     0.44170
Cu57       Cu  0.43217399  0.25393119  0.25171032     0.41990
Cu58       Cu  0.51158726  0.25352195  0.24891957     0.43880
N59         N  0.51446703  0.31486720  0.24934560    -0.34430
N60         N  0.53021038  0.29254308  0.24898979    -0.28680
C61         C  0.55709404  0.30060431  0.24778141    -0.04780
C62         C  0.55785910  0.32947400  0.24708485     0.07430
C63         C  0.53039917  0.33754730  0.24834326     0.01230
H64         H  0.57455509  0.28659293  0.24649083     0.08880
H65         H  0.52238191  0.35849284  0.24824864     0.07960
N66         N  0.48535101  0.21902811  0.24957493    -0.35880
N67         N  0.45788355  0.21922537  0.25107876    -0.28060
C68         C  0.44860840  0.19292852  0.25162961    -0.03300
C69         C  0.47112885  0.17505241  0.25013445     0.05310
C70         C  0.49403678  0.19256709  0.24890590     0.03410
H71         H  0.42688722  0.18767208  0.25332878     0.08510
H72         H  0.51563769  0.18672134  0.24747457     0.07340
N73         N  0.26419822  0.55819094  0.24946416    -0.27040
N74         N  0.28658408  0.54253699  0.25029970    -0.34900
C75         C  0.30924463  0.55851509  0.24962993     0.01300
C76         C  0.30108503  0.58588839  0.24773566     0.07320
C77         C  0.27221040  0.58507643  0.24810957    -0.05780
H78         H  0.33021623  0.55055238  0.24993712     0.07990
H79         H  0.25821158  0.60252015  0.24633363     0.09190
Cu80       Cu  0.28625137  0.50015670  0.24958870     0.44170
Cu81       Cu  0.22524609  0.53933902  0.24882914     0.41990
Cu82       Cu  0.22614761  0.45993920  0.25275830     0.43880
N83         N  0.28737931  0.45778525  0.24945671    -0.34430
N84         N  0.26524550  0.44176663  0.25133468    -0.28680
C85         C  0.27361059  0.41505140  0.25289248    -0.04780
C86         C  0.30248494  0.41470550  0.25230225     0.07430
C87         C  0.31025541  0.44219697  0.24963035     0.01230
H88         H  0.25986906  0.39741665  0.25537899     0.08880
H89         H  0.33108512  0.45052252  0.24836820     0.07960
N90         N  0.19125750  0.48541248  0.25163012    -0.35880
N91         N  0.19090419  0.51284648  0.24963043    -0.28060
C92         C  0.16437692  0.52135358  0.24867130    -0.03300
C93         C  0.14699002  0.49836918  0.25022821     0.05310
C94         C  0.16499191  0.47598961  0.25221443     0.03410
H95         H  0.15839092  0.54288287  0.24683241     0.08510
H96         H  0.15981095  0.45428380  0.25430711     0.07340
O97         O  0.94807736  0.54023250  0.50016148    -0.72700
O98         O  0.94848529  0.45691010  0.49955426    -0.73680
O99         O  0.94797304  0.49798290  0.04545416    -0.62300
O100        O  0.94853215  0.49856752  0.45453710    -0.70710
O101        O  0.99462159  0.49912733  0.45491939    -0.70260
O102        O  0.99401327  0.49975701  0.04580957    -0.61510
O103        O  0.99451821  0.45739706  0.50107928    -0.74020
O104        O  0.99405362  0.54069817  0.49985643    -0.72800
Cu105      Cu  0.94666085  0.49843446  0.49993937     1.04560
Cu106      Cu  0.99590454  0.49920499  0.50042883     1.04330
C107        C  0.97098974  0.55370771  0.49987419     0.93500
C108        C  0.97159263  0.44398789  0.50031960     0.92640
C109        C  0.97090246  0.49892098  0.05996666     0.84790
C110        C  0.97167141  0.49895865  0.44042102     0.91060
O111        O  0.92955082  0.47748770  0.25057344    -0.72700
O112        O  0.01282689  0.47669455  0.24989808    -0.73680
O113        O  0.97108825  0.47687626  0.29560465    -0.62300
O114        O  0.97052541  0.47705424  0.20480357    -0.70710
O115        O  0.97236024  0.52309079  0.20465948    -0.70260
O116        O  0.97201349  0.52292580  0.29567369    -0.61510
O117        O  0.01341254  0.52264340  0.25035003    -0.74020
O118        O  0.93026588  0.52346969  0.24985886    -0.72800
Cu119      Cu  0.97102324  0.47542681  0.25021820     1.04560
Cu120      Cu  0.97199934  0.52463828  0.25014055     1.04330
C121        C  0.91670653  0.50064349  0.25017527     0.93500
C122        C  0.02635506  0.49956645  0.25013305     0.92640
C123        C  0.97150512  0.49983595  0.30996082     0.84790
C124        C  0.97140712  0.50006550  0.19043134     0.91060
O125        O  0.51383263  0.02213430  0.50107208    -0.72700
O126        O  0.43042187  0.02261231  0.49897593    -0.73680
O127        O  0.47114684  0.02250704  0.04537494    -0.62300
O128        O  0.47340160  0.02240022  0.45457694    -0.70710
O129        O  0.47061353  0.97638508  0.45470198    -0.70260
O130        O  0.47293659  0.97644161  0.04552492    -0.61510
O131        O  0.43012295  0.97670378  0.50116485    -0.74020
O132        O  0.51339837  0.97618894  0.49888417    -0.72800
Cu133      Cu  0.47219049  0.02403142  0.49999695     1.04560
Cu134      Cu  0.47174446  0.97482131  0.50009610     1.04330
C135        C  0.52682333  0.99906753  0.49983761     0.93500
C136        C  0.41700465  0.99971117  0.50003299     0.92640
C137        C  0.47213748  0.99948703  0.05967643     0.84790
C138        C  0.47213929  0.99938551  0.44038900     0.91060
O139        O  0.49590487  0.95822166  0.25009301    -0.72700
O140        O  0.49568758  0.04137979  0.24988456    -0.73680
O141        O  0.49576952  0.99994050  0.29556789    -0.62300
O142        O  0.49560778  0.99972996  0.20447993    -0.70710
O143        O  0.44962735  0.99987153  0.20482237    -0.70260
O144        O  0.44975344  0.99918595  0.29545254    -0.61510
O145        O  0.44971280  0.04116138  0.25027924    -0.74020
O146        O  0.44990463  0.95802853  0.25005221    -0.72800
Cu147      Cu  0.49735875  0.99982605  0.25000489     1.04560
Cu148      Cu  0.44817427  0.99956487  0.25014918     1.04330
C149        C  0.47293647  0.94492378  0.25006797     0.93500
C150        C  0.47267959  0.05449566  0.25009583     0.92640
C151        C  0.47270810  0.99943819  0.30990389     0.84790
C152        C  0.47250726  0.99984558  0.19021601     0.91060
N153        N  0.02906863  0.79196540  0.50343548    -0.27040
N154        N  0.01355356  0.81428765  0.50656351    -0.34900
C155        C  0.02954504  0.83695291  0.50527320     0.01300
C156        C  0.05674900  0.82886210  0.50108913     0.07320
C157        C  0.05582878  0.80001520  0.50024972    -0.05780
H158        H  0.02172583  0.85793577  0.50663975     0.07910
H159        H  0.07301523  0.78607822  0.49632581     0.09190
Cu160      Cu  0.97105431  0.81400720  0.50917934     0.44170
Cu161      Cu  0.01040517  0.75291961  0.50157603     0.41990
Cu162      Cu  0.93154777  0.75372337  0.49786914     0.43880
N163        N  0.92865458  0.81482217  0.50512910    -0.34430
N164        N  0.91311120  0.79266750  0.50060623    -0.28680
C165        C  0.88644731  0.80080584  0.99729660    -0.04780
C166        C  0.88558782  0.82957809  0.99951721     0.07430
C167        C  0.91276070  0.83752304  0.50460411     0.01230
H168        H  0.86927850  0.78699384  0.99255874     0.08880
H169        H  0.92060017  0.85841349  0.50733348     0.07960
N170        N  0.95682383  0.71865106  0.49801668    -0.35880
N171        N  0.98427281  0.71830626  0.49980049    -0.28060
C172        C  0.99282429  0.69177817  0.50037595    -0.03300
C173        C  0.96983274  0.67438328  0.49885738     0.05310
C174        C  0.94741417  0.69238693  0.49722291     0.03410
H175        H  0.01436374  0.68576497  0.50215884     0.08510
H176        H  0.92568436  0.68717937  0.49535987     0.07340
N177        N  0.17716827  0.94183859  0.50020033    -0.27040
N178        N  0.15498441  0.95744353  0.50400294    -0.34900
C179        C  0.13223263  0.94149004  0.50361127     0.01300
C180        C  0.14017110  0.91428459  0.49907321     0.07320
C181        C  0.16897564  0.91513176  0.49739570    -0.05780
H182        H  0.11133690  0.94933795  0.50605336     0.07990
H183        H  0.18277748  0.89786793  0.49332614     0.09190
Cu184      Cu  0.15573371  0.99999652  0.50664536     0.44170
Cu185      Cu  0.21636966  0.95999034  0.49747035     0.41990
Cu186      Cu  0.21743164  0.03841652  0.49559110     0.43880
N187        N  0.15630828  0.04256596  0.50393041    -0.34430
N188        N  0.17880770  0.05754102  0.49889026    -0.28680
C189        C  0.17159617  0.08461709  0.49796025    -0.04780
C190        C  0.14317544  0.08643598  0.50302442     0.07430
C191        C  0.13435682  0.05933161  0.50658468     0.01230
H192        H  0.18599962  0.10162065  0.49479025     0.08880
H193        H  0.11338375  0.05221044  0.51074694     0.07960
N194        N  0.25210226  0.01253959  0.49620241    -0.35880
N195        N  0.25170367  0.98508127  0.49668680    -0.28060
C196        C  0.27796266  0.97573244  0.49742881    -0.03300
C197        C  0.29607123  0.99825298  0.49761948     0.05310
C198        C  0.27864190  0.02120197  0.49677512     0.03410
H199        H  0.28300227  0.95395382  0.49780199     0.08510
H200        H  0.28457917  0.04282513  0.49686582     0.07340
N201        N  0.03144486  0.20732920  0.49869017    -0.27040
N202        N  0.01610335  0.18473296  0.50097452    -0.34900
C203        C  0.03249796  0.16247352  0.50302582     0.01300
C204        C  0.05978556  0.17120260  0.50219354     0.07320
C205        C  0.05849628  0.19988865  0.49906900    -0.05780
H206        H  0.02499137  0.14139638  0.50523157     0.07990
H207        H  0.07578510  0.21422360  0.49823459     0.09190
Cu208      Cu  0.97360907  0.18467005  0.50218372     0.44170
Cu209      Cu  0.01215986  0.24596688  0.49716409     0.41990
Cu210      Cu  0.93281240  0.24465482  0.49556554     0.43880
N211        N  0.93114884  0.18330287  0.50065200    -0.34430
N212        N  0.91499499  0.20515859  0.49759126    -0.28680
C213        C  0.88835050  0.19636508  0.49585636    -0.04780
C214        C  0.88811341  0.16747019  0.49776700     0.07430
C215        C  0.91572509  0.16025039  0.50102981     0.01230
H216        H  0.87072340  0.20989697  0.49267002     0.08880
H217        H  0.92428223  0.13964765  0.50339882     0.07960
N218        N  0.95825890  0.27988467  0.49605739    -0.35880
N219        N  0.98578620  0.28028199  0.49715676    -0.28060
C220        C  0.99445588  0.30680918  0.49818231    -0.03300
C221        C  0.97151455  0.32400494  0.49737532     0.05310
C222        C  0.94895317  0.30618674  0.49609146     0.03410
H223        H  0.01600848  0.31309480  0.49910451     0.08510
H224        H  0.92723675  0.31181792  0.49587358     0.07340
N225        N  0.76553387  0.05602273  0.00297814    -0.27040
N226        N  0.78663953  0.04057771  0.01174894    -0.34900
C227        C  0.80967943  0.05607464  0.01273921     0.01300
C228        C  0.80315648  0.08277460  0.00378775     0.07320
C229        C  0.77476111  0.08216667  0.99812678    -0.05780
H230        H  0.82992905  0.04807424  0.01863177     0.07990
H231        H  0.76211177  0.09903707  0.98974297     0.09190
Cu232      Cu  0.78501589  0.99823191  0.01685556     0.44170
Cu233      Cu  0.72655976  0.03809322  0.99678245     0.41990
Cu234      Cu  0.72551733  0.95953981  0.99804897     0.43880
N235        N  0.78598617  0.95603898  0.01046735    -0.34430
N236        N  0.76422383  0.94093982  0.00283848    -0.28680
C237        C  0.77267336  0.91465668  0.99767193    -0.04780
C238        C  0.80124935  0.91364149  0.00180051     0.07430
C239        C  0.80876186  0.94021433  0.01013542     0.01230
H240        H  0.75932365  0.89795900  0.99018762     0.08880
H241        H  0.82945235  0.94778656  0.01490904     0.07960
N242        N  0.69092379  0.98542270  0.99669914    -0.35880
N243        N  0.69126801  0.01291853  0.99619436    -0.28060
C244        C  0.66496348  0.02220449  0.99655337    -0.03300
C245        C  0.64711482  0.99961744  0.99746756     0.05310
C246        C  0.66440441  0.97668934  0.99735757     0.03410
H247        H  0.65942963  0.04391565  0.99602445     0.08510
H248        H  0.65824466  0.95511948  0.99840081     0.07340
C249        C  0.87055166  0.11993689  0.98752612    -0.21060
C250        C  0.86468000  0.14737108  0.49598755    -0.09100
C251        C  0.83718265  0.15416139  0.50398383     0.29760
C252        C  0.81667382  0.13333226  0.50532458    -0.21060
C253        C  0.82337182  0.10558330  0.99887798    -0.09110
C254        C  0.85037358  0.09934400  0.98901190     0.29760
F255        F  0.85746906  0.07324589  0.98058429    -0.19640
H256        H  0.89104787  0.11408030  0.97990877     0.18130
H257        H  0.79591720  0.13866864  0.51264993     0.18140
F258        F  0.83035455  0.18044472  0.51187322    -0.19620
C259        C  0.10286640  0.11001872  0.02607167    -0.21060
C260        C  0.12511709  0.11112277  0.50563721    -0.09100
C261        C  0.12786497  0.13442892  0.48654683     0.29760
C262        C  0.10739467  0.15521542  0.48662566    -0.21060
C263        C  0.08411082  0.15281968  0.50565595    -0.09110
C264        C  0.08264440  0.13054534  0.02617608     0.29760
F265        F  0.06119951  0.12820844  0.04597256    -0.19640
H266        H  0.10065460  0.09270039  0.04156845     0.18130
H267        H  0.10888169  0.17223664  0.47065025     0.18140
F268        F  0.14906722  0.13611977  0.46639955    -0.19620
C269        C  0.86721630  0.87534924  0.48379316    -0.21060
C270        C  0.86195638  0.84892372  0.99591681    -0.09100
C271        C  0.83506087  0.84268324  0.00646742     0.29760
C272        C  0.81453566  0.86339123  0.00683511    -0.21060
C273        C  0.82071081  0.89040850  0.99678264    -0.09110
C274        C  0.84694515  0.89583376  0.48415578     0.29760
F275        F  0.85324027  0.92116900  0.47250202    -0.19640
H276        H  0.88742128  0.88047310  0.47457146     0.18130
H277        H  0.79438271  0.85875963  0.01649003     0.18140
F278        F  0.82915732  0.81733218  0.01826103    -0.19620
C279        C  0.12724344  0.86421195  0.00780231    -0.21060
C280        C  0.12103299  0.89042598  0.49549731    -0.09100
C281        C  0.09511233  0.89447945  0.48158074     0.29760
C282        C  0.07511999  0.87364978  0.48219245    -0.21060
C283        C  0.08033968  0.84818592  0.49651721    -0.09110
C284        C  0.10699936  0.84311875  0.00833298     0.29760
F285        F  0.11287583  0.81864237  0.02212007    -0.19640
H286        H  0.14717598  0.86056293  0.01840296     0.18130
H287        H  0.05511514  0.87778190  0.47196432     0.18140
F288        F  0.08882267  0.91878791  0.46761972    -0.19620
C289        C  0.57235569  0.02201136  0.01030704    -0.21060
C290        C  0.55755963  0.99894523  0.49948140    -0.09100
C291        C  0.57244528  0.97607250  0.48828536     0.29760
C292        C  0.60145687  0.97651364  0.48777028    -0.21060
C293        C  0.61630235  0.99963774  0.99845055    -0.09110
C294        C  0.60137843  0.02236360  0.01003653     0.29760
F295        F  0.61465048  0.04462064  0.02200616    -0.19640
H296        H  0.56142982  0.03973259  0.01943650     0.18130
H297        H  0.61227916  0.95880790  0.47850904     0.18140
F298        F  0.55904402  0.95352423  0.47709022    -0.19620
C299        C  0.37164765  0.97441068  0.00232706    -0.21060
C300        C  0.38614717  0.99962004  0.49982472    -0.09100
C301        C  0.37080487  0.02430207  0.49695555     0.29760
C302        C  0.34178052  0.02355040  0.49628104    -0.21060
C303        C  0.32712744  0.99829850  0.49860309    -0.09110
C304        C  0.34263659  0.97362862  0.00184101     0.29760
F305        F  0.33019861  0.94854526  0.00480080    -0.19640
H306        H  0.38278778  0.95504168  0.00474438     0.18130
H307        H  0.33094575  0.04301329  0.49374607     0.18140
F308        F  0.38369803  0.04927924  0.49458674    -0.19620
C309        C  0.44990121  0.98821574  0.39125477    -0.21060
C310        C  0.47242447  0.99934831  0.40718208    -0.09100
C311        C  0.49513205  0.01028380  0.39120453     0.29760
C312        C  0.49530465  0.00989801  0.35954091    -0.21060
C313        C  0.47253503  0.99920789  0.34339841    -0.09110
C314        C  0.44970204  0.98844078  0.35961013     0.29760
F315        F  0.42738882  0.97768586  0.34496045    -0.19640
H316        H  0.43227414  0.97969515  0.40338362     0.18130
H317        H  0.51309714  0.01831398  0.34763521     0.18140
F318        F  0.51736020  0.02074912  0.40625887    -0.19620
C319        C  0.44789283  0.00547034  0.10867100    -0.21060
C320        C  0.47230690  0.99954457  0.09283371    -0.09100
C321        C  0.49677250  0.99386137  0.10882501     0.29760
C322        C  0.49677011  0.99420626  0.14048485    -0.21060
C323        C  0.47225249  0.99986466  0.15664174    -0.09110
C324        C  0.44769360  0.00543410  0.14031590     0.29760
F325        F  0.42352108  0.01113501  0.15478202    -0.19640
H326        H  0.42889922  0.00991572  0.09646624     0.18130
H327        H  0.51594607  0.98982955  0.15234517     0.18140
F328        F  0.52071006  0.98839276  0.09378281    -0.19620
C329        C  0.95062286  0.39900984  0.48444213    -0.21060
C330        C  0.97165341  0.41333548  0.49993501    -0.09100
C331        C  0.99253577  0.39811350  0.01470180     0.29760
C332        C  0.99233794  0.36909854  0.01376863    -0.21060
C333        C  0.97134276  0.35473780  0.49817742    -0.09110
C334        C  0.95049934  0.37002523  0.48335678     0.29760
F335        F  0.93057067  0.35709822  0.46686003    -0.19640
H336        H  0.93451940  0.41032232  0.47259066     0.18130
H337        H  0.00844816  0.35783531  0.02564032     0.18140
F338        F  0.01267600  0.41121760  0.03074877    -0.19620
C339        C  0.94578835  0.59891330  0.00379471    -0.21060
C340        C  0.97078797  0.58451123  0.49955498    -0.09100
C341        C  0.99533999  0.59989417  0.49508135     0.29760
C342        C  0.99468884  0.62887922  0.49473042    -0.21060
C343        C  0.96970549  0.64341276  0.49905839    -0.09110
C344        C  0.94515385  0.62792512  0.00374053     0.29760
F345        F  0.92047803  0.64045651  0.00898741    -0.19640
H346        H  0.92658119  0.58769938  0.00752833     0.18130
H347        H  0.01396400  0.63983336  0.49080417     0.18140
F348        F  0.02007201  0.58706995  0.49072906    -0.19620
C349        C  0.95416237  0.48131436  0.39108326    -0.21060
C350        C  0.97181554  0.49921523  0.40709091    -0.09100
C351        C  0.98925385  0.51744141  0.39101179     0.29760
C352        C  0.98869413  0.51792760  0.35934330    -0.21060
C353        C  0.97143462  0.49963660  0.34331885    -0.09110
C354        C  0.95426802  0.48115587  0.35942540     0.29760
F355        F  0.93710798  0.46345510  0.34455541    -0.19640
H356        H  0.94058682  0.46714980  0.40314472     0.18130
H357        H  0.00208509  0.53227229  0.34729349     0.18140
F358        F  0.00625031  0.53525920  0.40593558    -0.19620
C359        C  0.99012826  0.51562273  0.10901510    -0.21060
C360        C  0.97078464  0.49922085  0.09334876    -0.09100
C361        C  0.95161564  0.48315547  0.10985281     0.29760
C362        C  0.95219026  0.48322729  0.14151455    -0.21060
C363        C  0.97123053  0.49998045  0.15711879    -0.09110
C364        C  0.99010072  0.51637007  0.14066325     0.29760
F365        F  0.00898853  0.53247445  0.15520337    -0.19640
H366        H  0.00502930  0.52817323  0.09669796     0.18130
H367        H  0.93749353  0.47048878  0.15389808     0.18140
F368        F  0.93285043  0.46684613  0.09539916    -0.19620
C369        C  0.10152639  0.52333720  0.25364802    -0.21060
C370        C  0.11602879  0.49824659  0.25012714    -0.09100
C371        C  0.10051282  0.47359521  0.24645983     0.29760
C372        C  0.07150044  0.47424257  0.24664779    -0.21060
C373        C  0.05714275  0.49933974  0.25014284    -0.09110
C374        C  0.07255060  0.52399257  0.25354171     0.29760
F375        F  0.05977321  0.54885268  0.25702061    -0.19640
H376        H  0.11247335  0.54271218  0.25675026     0.18130
H377        H  0.06025643  0.45495496  0.24374223     0.18140
F378        F  0.11299798  0.44877586  0.24205983    -0.19620
C379        C  0.31603054  0.36498878  0.24293508    -0.21060
C380        C  0.32182404  0.39108048  0.25568463    -0.09100
C381        C  0.34743285  0.39520779  0.27028079     0.29760
C382        C  0.36745274  0.37455371  0.27015189    -0.21060
C383        C  0.36265612  0.34917389  0.25561252    -0.09110
C384        C  0.33634760  0.34405829  0.24286869     0.29760
F385        F  0.33083850  0.31964578  0.22886758    -0.19640
H386        H  0.29634638  0.36127637  0.23181083     0.18130
H387        H  0.38709215  0.37872784  0.28117347     0.18140
F388        F  0.35336863  0.41933260  0.28469990    -0.19620
C389        C  0.49638491  0.12967918  0.25332320    -0.21060
C390        C  0.47117443  0.14410080  0.25006605    -0.09100
C391        C  0.44653509  0.12850227  0.24666919     0.29760
C392        C  0.44730265  0.09953405  0.24685565    -0.21060
C393        C  0.47249491  0.08525491  0.25008647    -0.09110
C394        C  0.49714541  0.10070537  0.25322010     0.29760
F395        F  0.52207560  0.08796806  0.25644825    -0.19640
H396        H  0.51577119  0.14067986  0.25618454     0.18130
H397        H  0.42799586  0.08825735  0.24416142     0.18140
F398        F  0.42157458  0.14083875  0.24258413    -0.19620
C399        C  0.36505083  0.62674883  0.22729720    -0.21060
C400        C  0.36131835  0.65150231  0.24336914    -0.09100
C401        C  0.33575450  0.65617846  0.25797476     0.29760
C402        C  0.31525285  0.63532193  0.25819081    -0.21060
C403        C  0.32014465  0.60975337  0.24390355    -0.09110
C404        C  0.34487555  0.60616602  0.22749974     0.29760
F405        F  0.34984551  0.58255033  0.21174856    -0.19640
H406        H  0.38401871  0.62295476  0.21484111     0.18130
H407        H  0.29623918  0.63859091  0.27075174     0.18140
F408        F  0.33122718  0.68000045  0.27347545    -0.19620
C409        C  0.49614213  0.86993715  0.24341296    -0.21060
C410        C  0.47173686  0.85548166  0.25111187    -0.09100
C411        C  0.44784806  0.87087080  0.25856126     0.29760
C412        C  0.44845466  0.89982805  0.25790056    -0.21060
C413        C  0.47284519  0.91421012  0.25025701    -0.09110
C414        C  0.49680395  0.89892786  0.24306432     0.29760
F415        F  0.52079978  0.91187549  0.23518290    -0.19640
H416        H  0.51481553  0.85886813  0.23728073     0.18130
H417        H  0.42978916  0.91103115  0.26389596     0.18140
F418        F  0.42401193  0.85823272  0.26739917    -0.19620
C419        C  0.59652410  0.60501028  0.27036182    -0.21060
C420        C  0.62228315  0.60953432  0.25632677    -0.09100
C421        C  0.62771647  0.63572477  0.24331172     0.29760
C422        C  0.60684470  0.65611585  0.24267221    -0.21060
C423        C  0.58043968  0.65051246  0.25485233    -0.09110
C424        C  0.57588036  0.62504510  0.26961039     0.29760
F425        F  0.55131194  0.61927643  0.28332935    -0.19640
H426        H  0.59199660  0.58559098  0.28170064     0.18130
H427        H  0.61086164  0.67570047  0.23141383     0.18140
F428        F  0.65243946  0.64111587  0.22980497    -0.19620
C429        C  0.62820916  0.36456861  0.25727786    -0.21060
C430        C  0.62257116  0.39078530  0.24467833    -0.09100
C431        C  0.59713432  0.39503205  0.22982193     0.29760
C432        C  0.57708230  0.37431484  0.22952355    -0.21060
C433        C  0.58164860  0.34880119  0.24401306    -0.09110
C434        C  0.60783222  0.34360481  0.25701301     0.29760
F435        F  0.61313578  0.31909569  0.27100249    -0.19640
H436        H  0.64777075  0.36080884  0.26863006     0.18130
H437        H  0.55756561  0.37858428  0.21830463     0.18140
F438        F  0.59138081  0.41939901  0.21569998    -0.19620
C439        C  0.84192696  0.52402238  0.24125005    -0.21060
C440        C  0.82723856  0.50005753  0.24997537    -0.09100
C441        C  0.84236192  0.47647954  0.25910497     0.29760
C442        C  0.87134873  0.47690182  0.25896354    -0.21060
C443        C  0.88598193  0.50082414  0.25016292    -0.09110
C444        C  0.87094095  0.52450866  0.24138679     0.29760
F445        F  0.88416393  0.54798740  0.23228922    -0.19640
H446        H  0.83100338  0.54242300  0.23385893     0.18130
H447        H  0.88237554  0.45848397  0.26620479     0.18140
F448        F  0.82938590  0.45319174  0.26906969    -0.19620
N449        N  0.67880357  0.55841727  0.75183807    -0.27040
N450        N  0.65657726  0.54247728  0.75323710    -0.34900
C451        C  0.63383461  0.55820963  0.75440607     0.01300
C452        C  0.64173469  0.58578968  0.75404132     0.07320
C453        C  0.67060374  0.58523532  0.75215962    -0.05780
H454        H  0.61297024  0.54994106  0.75549275     0.07990
H455        H  0.68457021  0.60282353  0.75186288     0.09190
Cu456      Cu  0.65725654  0.50005360  0.75446180     0.44170
Cu457      Cu  0.71794160  0.54014043  0.75047472     0.41990
Cu458      Cu  0.71759478  0.46078000  0.74763013     0.43880
N459        N  0.65649050  0.45764601  0.75299844    -0.34430
N460        N  0.67872070  0.44203746  0.74982208    -0.28680
C461        C  0.67058446  0.41528095  0.74738477    -0.04780
C462        C  0.64175275  0.41448813  0.74872996     0.07430
C463        C  0.63376237  0.44172623  0.75270215     0.01230
H464        H  0.68441958  0.39797245  0.74368955     0.08880
H465        H  0.61284925  0.44964685  0.75463691     0.07960
N466        N  0.75231531  0.48663258  0.74821083    -0.35880
N467        N  0.75251764  0.51411321  0.74953665    -0.28060
C468        C  0.77901358  0.52291012  0.75032322    -0.03300
C469        C  0.79640831  0.50005546  0.74952974     0.05310
C470        C  0.77863113  0.47746340  0.74801633     0.03410
H471        H  0.78506797  0.54447984  0.75177048     0.08510
H472        H  0.78415392  0.45580429  0.74647792     0.07340
N473        N  0.41326597  0.70720989  0.74837437    -0.27040
N474        N  0.42890435  0.68487857  0.74661312    -0.34900
C475        C  0.41281153  0.66232075  0.74536731     0.01300
C476        C  0.38535971  0.67053688  0.74612693     0.07320
C477        C  0.38632022  0.69931866  0.74828753    -0.05780
H478        H  0.42068991  0.64137673  0.74378379     0.07990
H479        H  0.36890818  0.71343543  0.74876829     0.09190
Cu480      Cu  0.47137417  0.68546622  0.74489621     0.44170
Cu481      Cu  0.43205094  0.74603560  0.74951353     0.41990
Cu482      Cu  0.51134633  0.74599239  0.75224401     0.43880
N483        N  0.51384514  0.68479942  0.74629298    -0.34430
N484        N  0.52964251  0.70693944  0.74973412    -0.28680
C485        C  0.55634503  0.69865615  0.75223180    -0.04780
C486        C  0.55691305  0.66984289  0.75062735     0.07430
C487        C  0.52959488  0.66202202  0.74645060     0.01230
H488        H  0.57376578  0.71236644  0.75619020     0.08880
H489        H  0.52148911  0.64117625  0.74435584     0.07960
N490        N  0.48550040  0.78069410  0.75202032    -0.35880
N491        N  0.45801584  0.78060306  0.75057475    -0.28060
C492        C  0.44894837  0.80692582  0.74997291    -0.03300
C493        C  0.47161245  0.82463912  0.75137860     0.05310
C494        C  0.49440854  0.80714303  0.75255665     0.03410
H495        H  0.42730571  0.81244673  0.74802291     0.08510
H496        H  0.51603371  0.81307756  0.75382295     0.07340
N497        N  0.41371438  0.29288706  0.75091037    -0.27040
N498        N  0.42958693  0.31517044  0.74992331    -0.34900
C499        C  0.41379365  0.33788644  0.75063503     0.01300
C500        C  0.38630115  0.32984580  0.75233935     0.07320
C501        C  0.38689021  0.30098015  0.75223429    -0.05780
H502        H  0.42191611  0.35882448  0.75034592     0.07990
H503        H  0.36937048  0.28701323  0.75408626     0.09190
Cu504      Cu  0.47202303  0.31437879  0.74953630     0.44170
Cu505      Cu  0.43217399  0.25393119  0.75171031     0.41990
Cu506      Cu  0.51158726  0.25352196  0.74891958     0.43880
N507        N  0.51446703  0.31486720  0.74934560    -0.34430
N508        N  0.53021038  0.29254309  0.74898981    -0.28680
C509        C  0.55709404  0.30060431  0.74778143    -0.04780
C510        C  0.55785910  0.32947400  0.74708486     0.07430
C511        C  0.53039917  0.33754730  0.74834326     0.01230
H512        H  0.57455510  0.28659293  0.74649086     0.08880
H513        H  0.52238192  0.35849285  0.74824864     0.07960
N514        N  0.48535101  0.21902812  0.74957493    -0.35880
N515        N  0.45788355  0.21922537  0.75107875    -0.28060
C516        C  0.44860840  0.19292852  0.75162960    -0.03300
C517        C  0.47112886  0.17505241  0.75013444     0.05310
C518        C  0.49403678  0.19256709  0.74890590     0.03410
H519        H  0.42688722  0.18767208  0.75332876     0.08510
H520        H  0.51563770  0.18672134  0.74747458     0.07340
N521        N  0.26419824  0.55819095  0.74946414    -0.27040
N522        N  0.28658410  0.54253700  0.75029968    -0.34900
C523        C  0.30924464  0.55851510  0.74962992     0.01300
C524        C  0.30108504  0.58588840  0.74773565     0.07320
C525        C  0.27221041  0.58507644  0.74810954    -0.05780
H526        H  0.33021624  0.55055239  0.74993711     0.07990
H527        H  0.25821160  0.60252016  0.74633360     0.09190
Cu528      Cu  0.28625138  0.50015671  0.74958868     0.44170
Cu529      Cu  0.22524610  0.53933904  0.74882910     0.41990
Cu530      Cu  0.22614762  0.45993922  0.75275826     0.43880
N531        N  0.28737932  0.45778526  0.74945669    -0.34430
N532        N  0.26524551  0.44176664  0.75133465    -0.28680
C533        C  0.27361059  0.41505141  0.75289246    -0.04780
C534        C  0.30248494  0.41470550  0.75230224     0.07430
C535        C  0.31025542  0.44219698  0.74963034     0.01230
H536        H  0.25986906  0.39741666  0.75537896     0.08880
H537        H  0.33108513  0.45052252  0.74836820     0.07960
N538        N  0.19125752  0.48541250  0.75163011    -0.35880
N539        N  0.19090420  0.51284650  0.74963042    -0.28060
C540        C  0.16437693  0.52135361  0.74867135    -0.03300
C541        C  0.14699003  0.49836921  0.75022832     0.05310
C542        C  0.16499192  0.47598964  0.75221449     0.03410
H543        H  0.15839093  0.54288290  0.74683250     0.08510
H544        H  0.15981097  0.45428383  0.75430720     0.07340
O545        O  0.94807518  0.54023398  0.00016147    -0.72700
O546        O  0.94848397  0.45691146  0.99955424    -0.73680
O547        O  0.94797480  0.49798149  0.54545413    -0.62300
O548        O  0.94853036  0.49856896  0.95453707    -0.70710
O549        O  0.99461980  0.49912914  0.95491938    -0.70260
O550        O  0.99401504  0.49975522  0.54580962    -0.61510
O551        O  0.99451688  0.45739889  0.00107922    -0.74020
O552        O  0.99405143  0.54069988  0.99985639    -0.72800
Cu553      Cu  0.94665907  0.49843586  0.99993936     1.04560
Cu554      Cu  0.99590276  0.49920679  0.00042880     1.04330
C555        C  0.97098751  0.55370930  0.99987412     0.93500
C556        C  0.97159145  0.44398948  0.00031955     0.92640
C557        C  0.97090420  0.49891938  0.55996667     0.84790
C558        C  0.97166963  0.49896029  0.94042100     0.91060
O559        O  0.92955084  0.47748774  0.75057333    -0.72700
O560        O  0.01282690  0.47669458  0.74989875    -0.73680
O561        O  0.97108786  0.47687683  0.79560494    -0.62300
O562        O  0.97052584  0.47705374  0.70480386    -0.70710
O563        O  0.97236067  0.52309030  0.70465916    -0.70260
O564        O  0.97201308  0.52292638  0.79567336    -0.61510
O565        O  0.01341255  0.52264345  0.75035010    -0.74020
O566        O  0.93026589  0.52346972  0.74985814    -0.72800
Cu567      Cu  0.97102326  0.47542685  0.75021851     1.04560
Cu568      Cu  0.97199935  0.52463832  0.75014021     1.04330
C569        C  0.91670655  0.50064351  0.75017481     0.93500
C570        C  0.02635507  0.49956649  0.75013349     0.92640
C571        C  0.97150454  0.49983669  0.80996080     0.84790
C572        C  0.97140772  0.50006484  0.69043133     0.91060
O573        O  0.51383236  0.02213465  0.00107212    -0.72700
O574        O  0.43042167  0.02261250  0.99897590    -0.73680
O575        O  0.47114709  0.02250683  0.54537492    -0.62300
O576        O  0.47340140  0.02240044  0.95457694    -0.70710
O577        O  0.47061341  0.97638529  0.95470199    -0.70260
O578        O  0.47293674  0.97644138  0.54552493    -0.61510
O579        O  0.43012277  0.97670397  0.00116483    -0.74020
O580        O  0.51339826  0.97618929  0.99888419    -0.72800
Cu581      Cu  0.47219025  0.02403166  0.99999695     1.04560
Cu582      Cu  0.47174432  0.97482155  0.00009610     1.04330
C583        C  0.52682314  0.99906794  0.99983766     0.93500
C584        C  0.41700446  0.99971136  0.00003295     0.92640
C585        C  0.47213767  0.99948681  0.55967643     0.84790
C586        C  0.47213914  0.99938572  0.94038900     0.91060
O587        O  0.49590489  0.95822166  0.75009304    -0.72700
O588        O  0.49568760  0.04137980  0.74988457    -0.73680
O589        O  0.49576951  0.99994052  0.79556791    -0.62300
O590        O  0.49560783  0.99972995  0.70447995    -0.70710
O591        O  0.44962740  0.99987151  0.70482234    -0.70260
O592        O  0.44975343  0.99918596  0.79545252    -0.61510
O593        O  0.44971281  0.04116139  0.75027921    -0.74020
O594        O  0.44990465  0.95802854  0.75005220    -0.72800
Cu595      Cu  0.49735877  0.99982606  0.75000491     1.04560
Cu596      Cu  0.44817429  0.99956488  0.75014916     1.04330
C597        C  0.47293649  0.94492379  0.75006799     0.93500
C598        C  0.47267961  0.05449566  0.75009582     0.92640
C599        C  0.47270809  0.99943822  0.80990390     0.84790
C600        C  0.47250732  0.99984556  0.69021601     0.91060
N601        N  0.02906802  0.79196645  0.00343573    -0.27040
N602        N  0.01355314  0.81428884  0.00656376    -0.34900
C603        C  0.02954482  0.83695396  0.00527339     0.01300
C604        C  0.05674870  0.82886291  0.00108928     0.07320
C605        C  0.05582824  0.80001602  0.00024992    -0.05780
H606        H  0.02172579  0.85793689  0.00663988     0.07910
H607        H  0.07301456  0.78607889  0.99632596     0.09190
Cu608      Cu  0.97105389  0.81400881  0.00917953     0.44170
Cu609      Cu  0.01040421  0.75292080  0.00157626     0.41990
Cu610      Cu  0.93154695  0.75372521  0.99786894     0.43880
N611        N  0.92865417  0.81482400  0.00512909    -0.34430
N612        N  0.91311072  0.79266941  0.00060610    -0.28680
C613        C  0.88644774  0.80080385  0.49729678    -0.04780
C614        C  0.88558815  0.82957613  0.49951730     0.07430
C615        C  0.91276037  0.83752493  0.00460411     0.01230
H616        H  0.86927896  0.78699179  0.49255901     0.08880
H617        H  0.92059988  0.85841536  0.00733357     0.07960
N618        N  0.95682259  0.71865269  0.99801658    -0.35880
N619        N  0.98427157  0.71830766  0.99980056    -0.28060
C620        C  0.99282279  0.69177949  0.00037604    -0.03300
C621        C  0.96983108  0.67438483  0.99885731     0.05310
C622        C  0.94741268  0.69238865  0.99722273     0.03410
H623        H  0.01436218  0.68576608  0.00215907     0.08510
H624        H  0.92568285  0.68718125  0.99535953     0.07340
N625        N  0.17716809  0.94183919  0.00020037    -0.27040
N626        N  0.15498420  0.95744410  0.00400296    -0.34900
C627        C  0.13223246  0.94149056  0.00361127     0.01300
C628        C  0.14017099  0.91428512  0.99907323     0.07320
C629        C  0.16897552  0.91513234  0.99739574    -0.05780
H630        H  0.11133670  0.94933842  0.00605330     0.07990
H631        H  0.18277739  0.89786854  0.99332618     0.09190
Cu632      Cu  0.15573344  0.99999712  0.00664535     0.44170
Cu633      Cu  0.21636944  0.95999100  0.99747036     0.41990
Cu634      Cu  0.21743145  0.03841717  0.99559126     0.43880
N635        N  0.15630802  0.04256658  0.00393040    -0.34430
N636        N  0.17880745  0.05754164  0.99889033    -0.28680
C637        C  0.17159591  0.08461771  0.99796028    -0.04780
C638        C  0.14317515  0.08643661  0.00302433     0.07430
C639        C  0.13435654  0.05933223  0.00658457     0.01230
H640        H  0.18599936  0.10162128  0.99479032     0.08880
H641        H  0.11338346  0.05221105  0.01074675     0.07960
N642        N  0.25210208  0.01254021  0.99620249    -0.35880
N643        N  0.25170345  0.98508189  0.99668681    -0.28060
C644        C  0.27796242  0.97573300  0.99742876    -0.03300
C645        C  0.29607104  0.99825349  0.99761948     0.05310
C646        C  0.27864174  0.02120253  0.99677520     0.03410
H647        H  0.28300198  0.95395437  0.99780186     0.08510
H648        H  0.28457907  0.04282567  0.99686596     0.07340
N649        N  0.03144511  0.20733056  0.99869042    -0.27040
N650        N  0.01610347  0.18473438  0.00097450    -0.34900
C651        C  0.03249795  0.16247483  0.00302563     0.01300
C652        C  0.05978560  0.17120374  0.00219353     0.07320
C653        C  0.05849650  0.19988983  0.99906926    -0.05780
H654        H  0.02499121  0.14139772  0.00523115     0.07990
H655        H  0.07578541  0.21422468  0.99823505     0.09190
Cu656      Cu  0.97360921  0.18467159  0.00218363     0.44170
Cu657      Cu  0.01216025  0.24596839  0.99716456     0.41990
Cu658      Cu  0.93281267  0.24465626  0.99556593     0.43880
N659        N  0.93114898  0.18330434  0.00065201    -0.34430
N660        N  0.91499513  0.20516007  0.99759143    -0.28680
C661        C  0.88835063  0.19636657  0.99585656    -0.04780
C662        C  0.88811353  0.16747166  0.99776705     0.07430
C663        C  0.91572523  0.16025186  0.00102974     0.01230
H664        H  0.87072354  0.20989849  0.99267035     0.08880
H665        H  0.92428240  0.13964912  0.00339866     0.07960
N666        N  0.95825919  0.27988610  0.99605774    -0.35880
N667        N  0.98578649  0.28028352  0.99715709    -0.28060
C668        C  0.99445607  0.30681077  0.99818246    -0.03300
C669        C  0.97151466  0.32400645  0.99737537     0.05310
C670        C  0.94895336  0.30618814  0.99609166     0.03410
H671        H  0.01600865  0.31309647  0.99910460     0.08510
H672        H  0.92723692  0.31181922  0.99587376     0.07340
N673        N  0.76553412  0.05602100  0.50297816    -0.27040
N674        N  0.78663985  0.04057600  0.51174879    -0.34900
C675        C  0.80967970  0.05607300  0.51273903     0.01300
C676        C  0.80315662  0.08277298  0.50378774     0.07320
C677        C  0.77476125  0.08216498  0.49812690    -0.05780
H678        H  0.82992939  0.04807265  0.51863144     0.07990
H679        H  0.76211182  0.09903538  0.48974320     0.09190
Cu680      Cu  0.78501627  0.99823016  0.51685524     0.44170
Cu681      Cu  0.72656009  0.03809143  0.49678250     0.41990
Cu682      Cu  0.72551748  0.95953801  0.49804915     0.43880
N683        N  0.78598646  0.95603720  0.51046714    -0.34430
N684        N  0.76422408  0.94093801  0.50283845    -0.28680
C685        C  0.77267361  0.91465483  0.49767200    -0.04780
C686        C  0.80124962  0.91363965  0.50180046     0.07430
C687        C  0.80876215  0.94021254  0.51013519     0.01230
H688        H  0.75932386  0.89795711  0.49018788     0.08880
H689        H  0.82945265  0.94778480  0.51490872     0.07960
N690        N  0.69092395  0.98542104  0.49669932    -0.35880
N691        N  0.69126831  0.01291687  0.49619447    -0.28060
C692        C  0.66496384  0.02220299  0.49655344    -0.03300
C693        C  0.64711505  0.99961607  0.49746769     0.05310
C694        C  0.66440450  0.97668785  0.49735777     0.03410
H695        H  0.65943014  0.04391419  0.49602444     0.08510
H696        H  0.65824461  0.95511803  0.49840104     0.07340
C697        C  0.87055156  0.11993550  0.48752572    -0.21060
C698        C  0.86468010  0.14737255  0.99598764    -0.09100
C699        C  0.83718269  0.15416295  0.00398360     0.29760
C700        C  0.81667380  0.13333388  0.00532433    -0.21060
C701        C  0.82337185  0.10558175  0.49887793    -0.09110
C702        C  0.85037353  0.09934257  0.48901151     0.29760
F703        F  0.85746898  0.07324453  0.48058361    -0.19640
H704        H  0.89104773  0.11407903  0.47990814     0.18130
H705        H  0.79591713  0.13867035  0.01264941     0.18140
F706        F  0.83035455  0.18044636  0.01187266    -0.19620
C707        C  0.10286686  0.11001810  0.52607201    -0.21060
C708        C  0.12511679  0.11112342  0.00563706    -0.09100
C709        C  0.12786488  0.13442970  0.98654690     0.29760
C710        C  0.10739470  0.15521632  0.98662576    -0.21060
C711        C  0.08411073  0.15282059  0.00565589    -0.09110
C712        C  0.08264474  0.13054460  0.52617639     0.29760
F713        F  0.06119998  0.12820774  0.54597303    -0.19640
H714        H  0.10065525  0.09269986  0.54156895     0.18130
H715        H  0.10888192  0.17223766  0.97065052     0.18140
F716        F  0.14906728  0.13612059  0.96639979    -0.19620
C717        C  0.86721598  0.87535118  0.98379305    -0.21060
C718        C  0.86195668  0.84892176  0.49591688    -0.09100
C719        C  0.83506114  0.84268131  0.50646742     0.29760
C720        C  0.81453594  0.86338933  0.50683510    -0.21060
C721        C  0.82071111  0.89040662  0.49678268    -0.09110
C722        C  0.84694481  0.89583568  0.98415568     0.29760
F723        F  0.85323987  0.92117092  0.97250190    -0.19640
H724        H  0.88742096  0.88047504  0.97457133     0.18130
H725        H  0.79438296  0.85875773  0.51648996     0.18140
F726        F  0.82915754  0.81733023  0.51826096    -0.19620
C727        C  0.12724363  0.86421138  0.50780215    -0.21060
C728        C  0.12103292  0.89042649  0.99549725    -0.09100
C729        C  0.09511237  0.89447992  0.98158044     0.29760
C730        C  0.07511998  0.87365031  0.98219217    -0.21060
C731        C  0.08033951  0.84818654  0.99651720    -0.09110
C732        C  0.10699961  0.84311813  0.50833279     0.29760
F733        F  0.11287624  0.81864168  0.52211965    -0.19640
H734        H  0.14717625  0.86056233  0.51840261     0.18130
H735        H  0.05511518  0.87778242  0.97196390     0.18140
F736        F  0.08882285  0.91878832  0.96761922    -0.19620
C737        C  0.57235607  0.02201068  0.51030690    -0.21060
C738        C  0.55755943  0.99894581  0.99948149    -0.09100
C739        C  0.57244525  0.97607324  0.98828534     0.29760
C740        C  0.60145683  0.97651464  0.98777017    -0.21060
C741        C  0.61630257  0.99963663  0.49845063    -0.09110
C742        C  0.60137881  0.02236267  0.51003647     0.29760
F743        F  0.61465102  0.04461964  0.52200605    -0.19640
H744        H  0.56143032  0.03973203  0.51943628     0.18130
H745        H  0.61227925  0.95880901  0.97850884     0.18140
F746        F  0.55904414  0.95352488  0.97709018    -0.19620
C747        C  0.37164791  0.97441040  0.50232706    -0.21060
C748        C  0.38614698  0.99962028  0.99982468    -0.09100
C749        C  0.37080475  0.02430235  0.99695546     0.29760
C750        C  0.34178040  0.02355077  0.99628096    -0.21060
C751        C  0.32712725  0.99829891  0.99860306    -0.09110
C752        C  0.34263685  0.97362825  0.50184099     0.29760
F753        F  0.33019895  0.94854485  0.50480070    -0.19640
H754        H  0.38278808  0.95504142  0.50474434     0.18130
H755        H  0.33094568  0.04301368  0.99374595     0.18140
F756        F  0.38369796  0.04927948  0.99458660    -0.19620
C757        C  0.44990112  0.98821588  0.89125476    -0.21060
C758        C  0.47242435  0.99934849  0.90718209    -0.09100
C759        C  0.49513196  0.01028394  0.89120454     0.29760
C760        C  0.49530459  0.00989810  0.85954092    -0.21060
C761        C  0.47253499  0.99920795  0.84339842    -0.09110
C762        C  0.44970199  0.98844086  0.85961012     0.29760
F763        F  0.42738880  0.97768590  0.84496043    -0.19640
H764        H  0.43227404  0.97969530  0.90338361     0.18130
H765        H  0.51309709  0.01831405  0.84763523     0.18140
F766        F  0.51736010  0.02074927  0.90625889    -0.19620
C767        C  0.44789296  0.00547017  0.60867096    -0.21060
C768        C  0.47230705  0.99954438  0.59283370    -0.09100
C769        C  0.49677264  0.99386125  0.60882505     0.29760
C770        C  0.49677022  0.99420619  0.64048489    -0.21060
C771        C  0.47225258  0.99986459  0.65664174    -0.09110
C772        C  0.44769370  0.00543399  0.64031586     0.29760
F773        F  0.42352117  0.01113491  0.65478194    -0.19640
H774        H  0.42889936  0.00991552  0.59646617     0.18130
H775        H  0.51594618  0.98982953  0.65234523     0.18140
F776        F  0.52071022  0.98839265  0.59378288    -0.19620
C777        C  0.95062209  0.39901116  0.98444227    -0.21060
C778        C  0.97165261  0.41333706  0.99993491    -0.09100
C779        C  0.99253618  0.39811169  0.51470225     0.29760
C780        C  0.99233801  0.36909675  0.51376909    -0.21060
C781        C  0.97134267  0.35473934  0.99817728    -0.09110
C782        C  0.95049893  0.37002655  0.98335688     0.29760
F783        F  0.93057024  0.35709932  0.96686035    -0.19640
H784        H  0.93451836  0.41032344  0.97259102     0.18130
H785        H  0.00844796  0.35783332  0.52564099     0.18140
F786        F  0.01267635  0.41121557  0.53074953    -0.19620
C787        C  0.94579046  0.59891160  0.50379435    -0.21060
C788        C  0.97078572  0.58451282  0.99955478    -0.09100
C789        C  0.99533771  0.59989564  0.99508050     0.29760
C790        C  0.99468673  0.62888067  0.99472960    -0.21060
C791        C  0.96970357  0.64341433  0.99905822    -0.09110
C792        C  0.94515579  0.62792339  0.50374016     0.29760
F793        F  0.92047977  0.64045458  0.50898644    -0.19640
H794        H  0.92658327  0.58769759  0.50752749     0.18130
H795        H  0.01396186  0.63983471  0.99080284     0.18140
F796        F  0.02006958  0.58707132  0.99072754    -0.19620
C797        C  0.95416083  0.48131585  0.89108320    -0.21060
C798        C  0.97181382  0.49921685  0.90709089    -0.09100
C799        C  0.98925223  0.51744298  0.89101182     0.29760
C800        C  0.98869285  0.51792891  0.85934332    -0.21060
C801        C  0.97143358  0.49963771  0.84331883    -0.09110
C802        C  0.95426680  0.48115712  0.85942534     0.29760
F803        F  0.93710695  0.46345621  0.84455530    -0.19640
H804        H  0.94058521  0.46715134  0.90314463     0.18130
H805        H  0.00208391  0.53227352  0.84729354     0.18140
F806        F  0.00624851  0.53526091  0.90593565    -0.19620
C807        C  0.99012992  0.51562111  0.60901517    -0.21060
C808        C  0.97078629  0.49921930  0.59334877    -0.09100
C809        C  0.95161704  0.48315415  0.60985275     0.29760
C810        C  0.95219134  0.48322622  0.64151449    -0.21060
C811        C  0.97123155  0.49997941  0.65711879    -0.09110
C812        C  0.99010207  0.51636870  0.64066331     0.29760
F813        F  0.00898986  0.53247305  0.65520350    -0.19640
H814        H  0.00503116  0.52817141  0.59669808     0.18130
H815        H  0.93749438  0.47048795  0.65389797     0.18140
F816        F  0.93285184  0.46684485  0.59539904    -0.19620
C817        C  0.10152642  0.52333724  0.75364827    -0.21060
C818        C  0.11602880  0.49824662  0.75012737    -0.09100
C819        C  0.10051282  0.47359523  0.74646016     0.29760
C820        C  0.07150044  0.47424260  0.74664826    -0.21060
C821        C  0.05714276  0.49933977  0.75014331    -0.09110
C822        C  0.07255062  0.52399260  0.75354207     0.29760
F823        F  0.05977324  0.54885272  0.75702096    -0.19640
H824        H  0.11247338  0.54271222  0.75675043     0.18130
H825        H  0.06025642  0.45495498  0.74374275     0.18140
F826        F  0.11299796  0.44877588  0.74206013    -0.19620
C827        C  0.31603054  0.36498879  0.74293507    -0.21060
C828        C  0.32182404  0.39108048  0.75568461    -0.09100
C829        C  0.34743286  0.39520779  0.77028078     0.29760
C830        C  0.36745273  0.37455371  0.77015189    -0.21060
C831        C  0.36265611  0.34917389  0.75561251    -0.09110
C832        C  0.33634760  0.34405829  0.74286868     0.29760
F833        F  0.33083850  0.31964579  0.72886756    -0.19640
H834        H  0.29634638  0.36127638  0.73181082     0.18130
H835        H  0.38709215  0.37872784  0.78117346     0.18140
F836        F  0.35336863  0.41933260  0.78469990    -0.19620
C837        C  0.49638492  0.12967918  0.75332319    -0.21060
C838        C  0.47117444  0.14410081  0.75006604    -0.09100
C839        C  0.44653510  0.12850227  0.74666918     0.29760
C840        C  0.44730266  0.09953405  0.74685563    -0.21060
C841        C  0.47249492  0.08525491  0.75008646    -0.09110
C842        C  0.49714543  0.10070538  0.75322009     0.29760
F843        F  0.52207561  0.08796807  0.75644824    -0.19640
H844        H  0.51577119  0.14067986  0.75618453     0.18130
H845        H  0.42799587  0.08825735  0.74416140     0.18140
F846        F  0.42157458  0.14083875  0.74258412    -0.19620
C847        C  0.36505084  0.62674884  0.72729718    -0.21060
C848        C  0.36131837  0.65150232  0.74336913    -0.09100
C849        C  0.33575452  0.65617847  0.75797475     0.29760
C850        C  0.31525287  0.63532194  0.75819080    -0.21060
C851        C  0.32014466  0.60975338  0.74390354    -0.09110
C852        C  0.34487557  0.60616603  0.72749972     0.29760
F853        F  0.34984552  0.58255034  0.71174854    -0.19640
H854        H  0.38401872  0.62295477  0.71484108     0.18130
H855        H  0.29623921  0.63859092  0.77075174     0.18140
F856        F  0.33122720  0.68000046  0.77347544    -0.19620
C857        C  0.49614214  0.86993716  0.74341298    -0.21060
C858        C  0.47173688  0.85548166  0.75111191    -0.09100
C859        C  0.44784808  0.87087080  0.75856130     0.29760
C860        C  0.44845469  0.89982806  0.75790060    -0.21060
C861        C  0.47284521  0.91421012  0.75025703    -0.09110
C862        C  0.49680396  0.89892787  0.74306433     0.29760
F863        F  0.52079979  0.91187549  0.73518288    -0.19640
H864        H  0.51481554  0.85886814  0.73728073     0.18130
H865        H  0.42978918  0.91103116  0.76389602     0.18140
F866        F  0.42401196  0.85823273  0.76739924    -0.19620
C867        C  0.59652410  0.60501028  0.77036182    -0.21060
C868        C  0.62228316  0.60953432  0.75632678    -0.09100
C869        C  0.62771648  0.63572478  0.74331175     0.29760
C870        C  0.60684471  0.65611587  0.74267224    -0.21060
C871        C  0.58043968  0.65051247  0.75485234    -0.09110
C872        C  0.57588036  0.62504511  0.76961038     0.29760
F873        F  0.55131193  0.61927643  0.78332933    -0.19640
H874        H  0.59199659  0.58559098  0.78170062     0.18130
H875        H  0.61086166  0.67570049  0.73141386     0.18140
F876        F  0.65243947  0.64111589  0.72980502    -0.19620
C877        C  0.62820916  0.36456862  0.75727789    -0.21060
C878        C  0.62257116  0.39078530  0.74467834    -0.09100
C879        C  0.59713433  0.39503204  0.72982192     0.29760
C880        C  0.57708231  0.37431484  0.72952354    -0.21060
C881        C  0.58164861  0.34880119  0.74401307    -0.09110
C882        C  0.60783221  0.34360482  0.75701304     0.29760
F883        F  0.61313578  0.31909571  0.77100253    -0.19640
H884        H  0.64777074  0.36080886  0.76863010     0.18130
H885        H  0.55756563  0.37858427  0.71830461     0.18140
F886        F  0.59138082  0.41939900  0.71569995    -0.19620
C887        C  0.84192693  0.52402239  0.74124974    -0.21060
C888        C  0.82723857  0.50005755  0.74997513    -0.09100
C889        C  0.84236196  0.47647957  0.75910469     0.29760
C890        C  0.87134876  0.47690184  0.75896313    -0.21060
C891        C  0.88598194  0.50082415  0.75016244    -0.09110
C892        C  0.87094093  0.52450867  0.74138635     0.29760
F893        F  0.88416388  0.54798741  0.73228876    -0.19640
H894        H  0.83100333  0.54242302  0.73385866     0.18130
H895        H  0.88237558  0.45848399  0.76620437     0.18140
F896        F  0.82938596  0.45319178  0.76906949    -0.19620
loop_ 
_geom_bond_atom_site_label_1 
_geom_bond_atom_site_label_2 
_geom_bond_distance 
_geom_bond_site_symmetry_2 
_ccdc_geom_bond_type 
N1            N2   1.318       .  A
N1            C5   1.353       .  A
N1           Cu9   2.084       .  S
N2            C3   1.335       .  A
N2           Cu8   2.046       .  S
C3            C4   1.382       .  A
C3            H6   1.082       .  S
C4            C5   1.394       .  A
C4          C420   1.485       .  S
C5            H7   1.081       .  S
Cu8          N11   2.046       .  S
Cu9          N19   2.088       .  S
Cu10         N12   2.080       .  S
Cu10         N18   2.084       .  S
N11          N12   1.318       .  A
N11          C15   1.336       .  A
N12          C13   1.352       .  A
C13          C14   1.391       .  A
C13          H16   1.082       .  S
C14          C15   1.381       .  A
C14         C430   1.479       .  S
C15          H17   1.082       .  S
N18          N19   1.326       .  A
N18          C22   1.344       .  A
N19          C20   1.345       .  A
C20          C21   1.386       .  A
C20          H23   1.081       .  S
C21          C22   1.386       .  A
C21         C440   1.485       .  S
C22          H24   1.080       .  S
N25          N26   1.318       .  A
N25          C29   1.352       .  A
N25         Cu33   2.078       .  S
N26          C27   1.335       .  A
N26         Cu32   2.048       .  S
C27          C28   1.382       .  A
C27          H30   1.082       .  S
C28          C29   1.392       .  A
C28         C400   1.481       .  S
C29          H31   1.082       .  S
Cu32         N35   2.047       .  S
Cu33         N43   2.082       .  S
Cu34         N36   2.084       .  S
Cu34         N42   2.088       .  S
N35          N36   1.319       .  A
N35          C39   1.336       .  A
N36          C37   1.352       .  A
C37          C38   1.391       .  A
C37          H40   1.082       .  S
C38          C39   1.381       .  A
C38         C423   1.480       .  S
C39          H41   1.081       .  S
N42          N43   1.326       .  A
N42          C46   1.345       .  A
N43          C44   1.343       .  A
C44          C45   1.386       .  A
C44          H47   1.080       .  S
C45          C46   1.387       .  A
C45         C410   1.487       .  S
C46          H48   1.081       .  S
N49          N50   1.318       .  A
N49          C53   1.352       .  A
N49         Cu57   2.080       .  S
N50          C51   1.335       .  A
N50         Cu56   2.045       .  S
C51          C52   1.381       .  A
C51          H54   1.082       .  S
C52          C53   1.392       .  A
C52         C383   1.481       .  S
C53          H55   1.081       .  S
Cu56         N59   2.045       .  S
Cu57         N67   2.084       .  S
Cu58         N60   2.082       .  S
Cu58         N66   2.087       .  S
N59          N60   1.318       .  A
N59          C63   1.335       .  A
N60          C61   1.352       .  A
C61          C62   1.392       .  A
C61          H64   1.082       .  S
C62          C63   1.381       .  A
C62         C433   1.481       .  S
C63          H65   1.082       .  S
N66          N67   1.325       .  A
N66          C70   1.344       .  A
N67          C68   1.343       .  A
C68          C69   1.389       .  A
C68          H71   1.079       .  S
C69          C70   1.389       .  A
C69         C390   1.492       .  S
C70          H72   1.081       .  S
N73          N74   1.318       .  A
N73          C77   1.353       .  A
N73         Cu81   2.083       .  S
N74          C75   1.335       .  A
N74         Cu80   2.043       .  S
C75          C76   1.380       .  A
C75          H78   1.082       .  S
C76          C77   1.392       .  A
C76         C403   1.480       .  S
C77          H79   1.082       .  S
Cu80         N83   2.043       .  S
Cu81         N91   2.088       .  S
Cu82         N84   2.080       .  S
Cu82         N90   2.084       .  S
N83          N84   1.318       .  A
N83          C87   1.335       .  A
N84          C85   1.352       .  A
C85          C86   1.392       .  A
C85          H88   1.082       .  S
C86          C87   1.381       .  A
C86         C380   1.480       .  S
C87          H89   1.081       .  S
N90          N91   1.325       .  A
N90          C94   1.344       .  A
N91          C92   1.344       .  A
C92          C93   1.389       .  A
C92          H95   1.081       .  S
C93          C94   1.388       .  A
C93         C370   1.492       .  S
C94          H96   1.079       .  S
O97        Cu105   2.016       .  S
O97         C107   1.280       .  A
O98        Cu105   2.004       .  S
O98         C108   1.277       .  A
O99        Cu553   2.011   1_554  S
O99         C109   1.278       .  A
O100       Cu105   2.007       .  S
O100        C110   1.277       .  A
O101       Cu106   2.011       .  S
O101        C110   1.278       .  A
O102       Cu554   2.007       .  S
O102        C109   1.277       .  A
O103       Cu106   2.016       .  S
O103        C108   1.279       .  A
O104       Cu106   2.002       .  S
O104        C107   1.277       .  A
Cu105       O547   2.011       .  S
Cu105      Cu106   2.373       .  S
Cu106       O550   2.007       .  S
C107        C340   1.485       .  S
C108        C330   1.478       .  S
C109        C360   1.475       .  S
C110        C350   1.472       .  S
O111       Cu119   2.001       .  S
O111        C121   1.278       .  A
O112       Cu119   2.015   1_455  S
O112        C122   1.280       .  A
O113       Cu119   2.006       .  S
O113        C123   1.277       .  A
O114       Cu119   2.007       .  S
O114        C124   1.277       .  A
O115       Cu120   2.011       .  S
O115        C124   1.278       .  A
O116       Cu120   2.013       .  S
O116        C123   1.278       .  A
O117       Cu120   1.998   1_455  S
O117        C122   1.277       .  A
O118       Cu120   2.011       .  S
O118        C121   1.278       .  A
Cu119      Cu120   2.373       .  S
C121        C443   1.480       .  S
C122        C373   1.483       .  S
C123        C353   1.473       .  S
C124        C363   1.471       .  S
O125       Cu133   2.009       .  S
O125        C135   1.279   1_545  A
O126       Cu133   2.014       .  S
O126        C136   1.279   1_545  A
O127       Cu581   2.006   1_554  S
O127        C137   1.276   1_545  A
O128       Cu133   2.009       .  S
O128        C138   1.277   1_545  A
O129       Cu134   2.007       .  S
O129        C138   1.277       .  A
O130       Cu582   2.009       .  S
O130        C137   1.277       .  A
O131       Cu134   2.008       .  S
O131        C136   1.279       .  A
O132       Cu134   2.008       .  S
O132        C135   1.278       .  A
Cu133       O575   2.006       .  S
Cu133      Cu134   2.372   1_545  S
Cu134       O578   2.009       .  S
C135        C290   1.481       .  S
C136        C300   1.487       .  S
C137        C320   1.465       .  S
C138        C310   1.467       .  S
O139       Cu147   2.007       .  S
O139        C149   1.278       .  A
O140       Cu147   2.005   1_545  S
O140        C150   1.277       .  A
O141       Cu147   2.014       .  S
O141        C151   1.279       .  A
O142       Cu147   2.013       .  S
O142        C152   1.279       .  A
O143       Cu148   2.003       .  S
O143        C152   1.277       .  A
O144       Cu148   2.003       .  S
O144        C151   1.277       .  A
O145       Cu148   2.006   1_545  S
O145        C150   1.278       .  A
O146       Cu148   2.004       .  S
O146        C149   1.278       .  A
Cu147      Cu148   2.370       .  S
C149        C413   1.481       .  S
C150        C393   1.483       .  S
C151        C313   1.480       .  S
C152        C323   1.483       .  S
N153        N154   1.319       .  A
N153        C157   1.353       .  A
N153       Cu161   2.086       .  S
N154        C155   1.337       .  A
N154       Cu160   2.051   1_455  S
C155        C156   1.381       .  A
C155        H158   1.082       .  S
C156        C157   1.392       .  A
C156        C283   1.481       .  S
C157        H159   1.082       .  S
Cu160       N163   2.051       .  S
Cu161       N171   2.090   1_455  S
Cu162       N164   2.082       .  S
Cu162       N170   2.086       .  S
N163        N164   1.319       .  A
N163        C167   1.337       .  A
N164        C613   1.352       .  A
C165        N612   1.352   1_556  A
C165        C166   1.391       .  A
C165        H168   1.081       .  S
C166        C615   1.382   1_556  A
C166        C270   1.482       .  S
C167        C614   1.382       .  A
C167        H169   1.082       .  S
N170        N171   1.325       .  A
N170        C174   1.344       .  A
N171        C172   1.345       .  A
C172        C173   1.390       .  A
C172        H175   1.081   1_655  S
C173        C174   1.389       .  A
C173        C343   1.493       .  S
C174        H176   1.079       .  S
N177        N178   1.319       .  A
N177        C181   1.352       .  A
N177       Cu185   2.083       .  S
N178        C179   1.338       .  A
N178       Cu184   2.055       .  S
C179        C180   1.382       .  A
C179        H182   1.082       .  S
C180        C181   1.390       .  A
C180        C280   1.481       .  S
C181        H183   1.082       .  S
Cu184       N187   2.055   1_565  S
Cu185       N195   2.086       .  S
Cu186       N188   2.084       .  S
Cu186       N194   2.087       .  S
N187        N188   1.320       .  A
N187        C191   1.338       .  A
N188        C189   1.352       .  A
C189        C190   1.390       .  A
C189        H192   1.082       .  S
C190        C191   1.382       .  A
C190        C260   1.480       .  S
C191        H193   1.082       .  S
N194        N195   1.324   1_545  A
N194        C198   1.344       .  A
N195        C196   1.344       .  A
C196        C197   1.391       .  A
C196        H199   1.078       .  S
C197        C198   1.391   1_565  A
C197        C303   1.497       .  S
C198        H200   1.080       .  S
N201        N202   1.319       .  A
N201        C205   1.353       .  A
N201       Cu209   2.084       .  S
N202        C203   1.337       .  A
N202       Cu208   2.048   1_455  S
C203        C204   1.380       .  A
C203        H206   1.082       .  S
C204        C205   1.391       .  A
C204        C263   1.479       .  S
C205        H207   1.082       .  S
Cu208       N211   2.048       .  S
Cu209       N219   2.088   1_455  S
Cu210       N212   2.088       .  S
Cu210       N218   2.092       .  S
N211        N212   1.318       .  A
N211        C215   1.335       .  A
N212        C213   1.353       .  A
C213        C214   1.395       .  A
C213        H216   1.081       .  S
C214        C215   1.383       .  A
C214        C250   1.488       .  S
C215        H217   1.081       .  S
N218        N219   1.327       .  A
N218        C222   1.346       .  A
N219        C220   1.345       .  A
C220        C221   1.383       .  A
C220        H223   1.082   1_655  S
C221        C222   1.385       .  A
C221        C333   1.482       .  S
C222        H224   1.082       .  S
N225        N226   1.319       .  A
N225        C229   1.352   1_554  A
N225       Cu233   2.084   1_554  S
N226        C227   1.337       .  A
N226       Cu232   2.054   1_545  S
C227        C228   1.382       .  A
C227        H230   1.081       .  S
C228        C229   1.391   1_554  A
C228        C253   1.483   1_554  S
C229        H231   1.082       .  S
Cu232       N235   2.055       .  S
Cu233       N243   2.087       .  S
Cu234       N236   2.082   1_556  S
Cu234       N242   2.085       .  S
N235        N236   1.319       .  A
N235        C239   1.338       .  A
N236        C237   1.352   1_554  A
C237        C238   1.390   1_556  A
C237        H240   1.082       .  S
C238        C239   1.381       .  A
C238        C273   1.479   1_554  S
C239        H241   1.082       .  S
N242        N243   1.326   1_565  A
N242        C246   1.345       .  A
N243        C244   1.345       .  A
C244        C245   1.386   1_545  A
C244        H247   1.081       .  S
C245        C246   1.386       .  A
C245        C293   1.485       .  S
C246        H248   1.082       .  S
C249        C254   1.389       .  A
C249        C698   1.405       .  A
C249        H256   1.082       .  S
C250        C251   1.410       .  A
C250        C697   1.405       .  A
C251        C252   1.408       .  A
C251        F258   1.356       .  S
C252        C701   1.407       .  A
C252        H257   1.083       .  S
C253        C254   1.405       .  A
C253        C700   1.407   1_556  A
C254        F255   1.357       .  S
C259        C264   1.390       .  A
C259        C708   1.402       .  A
C259        H266   1.083       .  S
C260        C261   1.409       .  A
C260        C707   1.402       .  A
C261        C262   1.408       .  A
C261        F268   1.357       .  S
C262        C263   1.406       .  A
C262        H267   1.083       .  S
C263        C712   1.405       .  A
C264        C711   1.405       .  A
C264        F265   1.358       .  S
C269        C274   1.391       .  A
C269        C718   1.403       .  A
C269        H276   1.083       .  S
C270        C271   1.409   1_556  A
C270        C717   1.403       .  A
C271        C272   1.407       .  A
C271        F278   1.357       .  S
C272        C273   1.406   1_554  A
C272        H277   1.083       .  S
C273        C722   1.405       .  A
C274        C721   1.405       .  A
C274        F275   1.358       .  S
C279        C284   1.408       .  A
C279        C728   1.407   1_554  A
C279        H286   1.083       .  S
C280        C281   1.406       .  A
C280        C727   1.407       .  A
C281        C282   1.390       .  A
C281        F288   1.358       .  S
C282        C283   1.403       .  A
C282        H287   1.083       .  S
C283        C732   1.408       .  A
C284        C731   1.408   1_554  A
C284        F285   1.357       .  S
C289        C294   1.398       .  A
C289        C738   1.404   1_544  A
C289        H296   1.083       .  S
C290        C291   1.408       .  A
C290        C737   1.404   1_565  A
C291        C292   1.398       .  A
C291        F298   1.357       .  S
C292        C741   1.406       .  A
C292        H297   1.082       .  S
C293        C294   1.409   1_566  A
C293        C740   1.406       .  A
C294        F295   1.356       .  S
C299        C304   1.398       .  A
C299        C748   1.404   1_554  A
C299        H306   1.083       .  S
C300        C301   1.408   1_565  A
C300        C747   1.404       .  A
C301        C302   1.399       .  A
C301        F308   1.357       .  S
C302        C303   1.409   1_545  A
C302        H307   1.080       .  S
C303        C752   1.413       .  A
C304        C751   1.413   1_554  A
C304        F305   1.354       .  S
C309        C310   1.400       .  A
C309        C314   1.398       .  A
C309        H316   1.084       .  S
C310        C311   1.403   1_565  A
C311        C312   1.399       .  A
C311        F318   1.358       .  S
C312        C313   1.406   1_545  A
C312        H317   1.083       .  S
C313        C314   1.410       .  A
C314        F315   1.357       .  S
C319        C320   1.399   1_545  A
C319        C324   1.398       .  A
C319        H326   1.084       .  S
C320        C321   1.401       .  A
C321        C322   1.399       .  A
C321        F328   1.358       .  S
C322        C323   1.408       .  A
C322        H327   1.083       .  S
C323        C324   1.412   1_565  A
C324        F325   1.357       .  S
C329        C330   1.404       .  A
C329        C334   1.398       .  A
C329        H336   1.083       .  S
C330        C779   1.406       .  A
C331        C332   1.399       .  A
C331        C778   1.406   1_554  A
C331        F338   1.357   1_655  S
C332        C781   1.406   1_554  A
C332        H337   1.083   1_655  S
C333        C334   1.407       .  A
C333        C780   1.406       .  A
C334        F335   1.357       .  S
C339        C344   1.399       .  A
C339        C788   1.404   1_554  A
C339        H346   1.083       .  S
C340        C341   1.408       .  A
C340        C787   1.404       .  A
C341        C342   1.398       .  A
C341        F348   1.358   1_655  S
C342        C343   1.407       .  A
C342        H347   1.081   1_655  S
C343        C792   1.412       .  A
C344        C791   1.412   1_554  A
C344        F345   1.355       .  S
C349        C350   1.403       .  A
C349        C354   1.398       .  A
C349        H356   1.083       .  S
C350        C351   1.405       .  A
C351        C352   1.399       .  A
C351        F358   1.358   1_655  S
C352        C353   1.404       .  A
C352        H357   1.083   1_655  S
C353        C354   1.406       .  A
C354        F355   1.358       .  S
C359        C360   1.404       .  A
C359        C364   1.398       .  A
C359        H366   1.083   1_655  S
C360        C361   1.406       .  A
C361        C362   1.399       .  A
C361        F368   1.357       .  S
C362        C363   1.403       .  A
C362        H367   1.083       .  S
C363        C364   1.404       .  A
C364        F365   1.358   1_655  S
C369        C370   1.407       .  A
C369        C374   1.396       .  A
C369        H376   1.081       .  S
C370        C371   1.412       .  A
C371        C372   1.398       .  A
C371        F378   1.355       .  S
C372        C373   1.404       .  A
C372        H377   1.083       .  S
C373        C374   1.408       .  A
C374        F375   1.358       .  S
C379        C380   1.407       .  A
C379        C384   1.407       .  A
C379        H386   1.083       .  S
C380        C381   1.406       .  A
C381        C382   1.388       .  A
C381        F388   1.357       .  S
C382        C383   1.402       .  A
C382        H387   1.083       .  S
C383        C384   1.408       .  A
C384        F385   1.357       .  S
C389        C390   1.408       .  A
C389        C394   1.397       .  A
C389        H396   1.081       .  S
C390        C391   1.412       .  A
C391        C392   1.397       .  A
C391        F398   1.355       .  S
C392        C393   1.404       .  A
C392        H397   1.083       .  S
C393        C394   1.407       .  A
C394        F395   1.358       .  S
C399        C400   1.402       .  A
C399        C404   1.387       .  A
C399        H406   1.083       .  S
C400        C401   1.409       .  A
C401        C402   1.408       .  A
C401        F408   1.357       .  S
C402        C403   1.407       .  A
C402        H407   1.083       .  S
C403        C404   1.406       .  A
C404        F405   1.358       .  S
C409        C410   1.407       .  A
C409        C414   1.398       .  A
C409        H416   1.082       .  S
C410        C411   1.410       .  A
C411        C412   1.396       .  A
C411        F418   1.356       .  S
C412        C413   1.404       .  A
C412        H417   1.083       .  S
C413        C414   1.408       .  A
C414        F415   1.357       .  S
C419        C420   1.404       .  A
C419        C424   1.388       .  A
C419        H426   1.082       .  S
C420        C421   1.410       .  A
C421        C422   1.408       .  A
C421        F428   1.356       .  S
C422        C423   1.407       .  A
C422        H427   1.083       .  S
C423        C424   1.405       .  A
C424        F425   1.358       .  S
C429        C430   1.407       .  A
C429        C434   1.407       .  A
C429        H436   1.083       .  S
C430        C431   1.405       .  A
C431        C432   1.388       .  A
C431        F438   1.358       .  S
C432        C433   1.403       .  A
C432        H437   1.083       .  S
C433        C434   1.409       .  A
C434        F435   1.357       .  S
C439        C440   1.406       .  A
C439        C444   1.398       .  A
C439        H446   1.082       .  S
C440        C441   1.409       .  A
C441        C442   1.397       .  A
C441        F448   1.356       .  S
C442        C443   1.404       .  A
C442        H447   1.083       .  S
C443        C444   1.407       .  A
C444        F445   1.357       .  S
N449        N450   1.318       .  A
N449        C453   1.353       .  A
N449       Cu457   2.084       .  S
N450        C451   1.335       .  A
N450       Cu456   2.046       .  S
C451        C452   1.382       .  A
C451        H454   1.082       .  S
C452        C453   1.394       .  A
C452        C868   1.485       .  S
C453        H455   1.081       .  S
Cu456       N459   2.046       .  S
Cu457       N467   2.088       .  S
Cu458       N460   2.080       .  S
Cu458       N466   2.084       .  S
N459        N460   1.318       .  A
N459        C463   1.336       .  A
N460        C461   1.352       .  A
C461        C462   1.391       .  A
C461        H464   1.082       .  S
C462        C463   1.381       .  A
C462        C878   1.479       .  S
C463        H465   1.082       .  S
N466        N467   1.326       .  A
N466        C470   1.344       .  A
N467        C468   1.345       .  A
C468        C469   1.386       .  A
C468        H471   1.081       .  S
C469        C470   1.386       .  A
C469        C888   1.485       .  S
C470        H472   1.080       .  S
N473        N474   1.318       .  A
N473        C477   1.352       .  A
N473       Cu481   2.078       .  S
N474        C475   1.335       .  A
N474       Cu480   2.048       .  S
C475        C476   1.382       .  A
C475        H478   1.082       .  S
C476        C477   1.392       .  A
C476        C848   1.481       .  S
C477        H479   1.082       .  S
Cu480       N483   2.047       .  S
Cu481       N491   2.082       .  S
Cu482       N484   2.084       .  S
Cu482       N490   2.088       .  S
N483        N484   1.319       .  A
N483        C487   1.336       .  A
N484        C485   1.352       .  A
C485        C486   1.391       .  A
C485        H488   1.082       .  S
C486        C487   1.381       .  A
C486        C871   1.480       .  S
C487        H489   1.081       .  S
N490        N491   1.326       .  A
N490        C494   1.345       .  A
N491        C492   1.343       .  A
C492        C493   1.386       .  A
C492        H495   1.080       .  S
C493        C494   1.387       .  A
C493        C858   1.487       .  S
C494        H496   1.081       .  S
N497        N498   1.318       .  A
N497        C501   1.352       .  A
N497       Cu505   2.080       .  S
N498        C499   1.335       .  A
N498       Cu504   2.045       .  S
C499        C500   1.381       .  A
C499        H502   1.082       .  S
C500        C501   1.392       .  A
C500        C831   1.481       .  S
C501        H503   1.081       .  S
Cu504       N507   2.045       .  S
Cu505       N515   2.084       .  S
Cu506       N508   2.082       .  S
Cu506       N514   2.087       .  S
N507        N508   1.318       .  A
N507        C511   1.335       .  A
N508        C509   1.352       .  A
C509        C510   1.392       .  A
C509        H512   1.082       .  S
C510        C511   1.381       .  A
C510        C881   1.481       .  S
C511        H513   1.082       .  S
N514        N515   1.325       .  A
N514        C518   1.344       .  A
N515        C516   1.343       .  A
C516        C517   1.389       .  A
C516        H519   1.079       .  S
C517        C518   1.389       .  A
C517        C838   1.492       .  S
C518        H520   1.081       .  S
N521        N522   1.318       .  A
N521        C525   1.353       .  A
N521       Cu529   2.083       .  S
N522        C523   1.335       .  A
N522       Cu528   2.043       .  S
C523        C524   1.380       .  A
C523        H526   1.082       .  S
C524        C525   1.392       .  A
C524        C851   1.480       .  S
C525        H527   1.082       .  S
Cu528       N531   2.043       .  S
Cu529       N539   2.088       .  S
Cu530       N532   2.080       .  S
Cu530       N538   2.084       .  S
N531        N532   1.318       .  A
N531        C535   1.335       .  A
N532        C533   1.352       .  A
C533        C534   1.392       .  A
C533        H536   1.082       .  S
C534        C535   1.381       .  A
C534        C828   1.480       .  S
C535        H537   1.081       .  S
N538        N539   1.325       .  A
N538        C542   1.344       .  A
N539        C540   1.344       .  A
C540        C541   1.389       .  A
C540        H543   1.081       .  S
C541        C542   1.388       .  A
C541        C818   1.492       .  S
C542        H544   1.079       .  S
O545       Cu553   2.016   1_554  S
O545        C555   1.280   1_554  A
O546       Cu553   2.004       .  S
O546        C556   1.277   1_556  A
O547        C557   1.278       .  A
O548       Cu553   2.007       .  S
O548        C558   1.277       .  A
O549       Cu554   2.011   1_556  S
O549        C558   1.278       .  A
O550        C557   1.277       .  A
O551       Cu554   2.016       .  S
O551        C556   1.279       .  A
O552       Cu554   2.002   1_556  S
O552        C555   1.277       .  A
Cu553      Cu554   2.373   1_556  S
C555        C788   1.485       .  S
C556        C778   1.478   1_554  S
C557        C808   1.475       .  S
C558        C798   1.472       .  S
O559       Cu567   2.001       .  S
O559        C569   1.278       .  A
O560       Cu567   2.015   1_455  S
O560        C570   1.280       .  A
O561       Cu567   2.006       .  S
O561        C571   1.277       .  A
O562       Cu567   2.007       .  S
O562        C572   1.277       .  A
O563       Cu568   2.011       .  S
O563        C572   1.278       .  A
O564       Cu568   2.013       .  S
O564        C571   1.278       .  A
O565       Cu568   1.998   1_455  S
O565        C570   1.277       .  A
O566       Cu568   2.011       .  S
O566        C569   1.278       .  A
Cu567      Cu568   2.373       .  S
C569        C891   1.480       .  S
C570        C821   1.483       .  S
C571        C801   1.473       .  S
C572        C811   1.471       .  S
O573       Cu581   2.009   1_554  S
O573        C583   1.279   1_544  A
O574       Cu581   2.014       .  S
O574        C584   1.279   1_546  A
O575        C585   1.276   1_545  A
O576       Cu581   2.009       .  S
O576        C586   1.277   1_545  A
O577       Cu582   2.007   1_556  S
O577        C586   1.277       .  A
O578        C585   1.277       .  A
O579       Cu582   2.008       .  S
O579        C584   1.279       .  A
O580       Cu582   2.008   1_556  S
O580        C583   1.278       .  A
Cu581      Cu582   2.372   1_546  S
C583        C738   1.481       .  S
C584        C748   1.487   1_554  S
C585        C768   1.465       .  S
C586        C758   1.467       .  S
O587       Cu595   2.007       .  S
O587        C597   1.278       .  A
O588       Cu595   2.005   1_545  S
O588        C598   1.277       .  A
O589       Cu595   2.014       .  S
O589        C599   1.279       .  A
O590       Cu595   2.013       .  S
O590        C600   1.279       .  A
O591       Cu596   2.003       .  S
O591        C600   1.277       .  A
O592       Cu596   2.003       .  S
O592        C599   1.277       .  A
O593       Cu596   2.006   1_545  S
O593        C598   1.278       .  A
O594       Cu596   2.004       .  S
O594        C597   1.278       .  A
Cu595      Cu596   2.370       .  S
C597        C861   1.481       .  S
C598        C841   1.483       .  S
C599        C761   1.480       .  S
C600        C771   1.483       .  S
N601        N602   1.319       .  A
N601        C605   1.353       .  A
N601       Cu609   2.086       .  S
N602        C603   1.337       .  A
N602       Cu608   2.051   1_455  S
C603        C604   1.381       .  A
C603        H606   1.082       .  S
C604        C605   1.392       .  A
C604        C731   1.481   1_554  S
C605        H607   1.082   1_554  S
Cu608       N611   2.051       .  S
Cu609       N619   2.090   1_454  S
Cu610       N612   2.082   1_556  S
Cu610       N618   2.086       .  S
N611        N612   1.319       .  A
N611        C615   1.337       .  A
C613        C614   1.391       .  A
C613        H616   1.081       .  S
C614        C718   1.482       .  S
C615        H617   1.082       .  S
N618        N619   1.325       .  A
N618        C622   1.344       .  A
N619        C620   1.345   1_556  A
C620        C621   1.390   1_554  A
C620        H623   1.081   1_655  S
C621        C622   1.389       .  A
C621        C791   1.493       .  S
C622        H624   1.079       .  S
N625        N626   1.319       .  A
N625        C629   1.352   1_554  A
N625       Cu633   2.083   1_554  S
N626        C627   1.338       .  A
N626       Cu632   2.055       .  S
C627        C628   1.382   1_554  A
C627        H630   1.082       .  S
C628        C629   1.390       .  A
C628        C728   1.481       .  S
C629        H631   1.082       .  S
Cu632       N635   2.055   1_565  S
Cu633       N643   2.086       .  S
Cu634       N636   2.084       .  S
Cu634       N642   2.087       .  S
N635        N636   1.320   1_554  A
N635        C639   1.338       .  A
N636        C637   1.352       .  A
C637        C638   1.390   1_556  A
C637        H640   1.082       .  S
C638        C639   1.382       .  A
C638        C708   1.481       .  S
C639        H641   1.082       .  S
N642        N643   1.324   1_545  A
N642        C646   1.344       .  A
N643        C644   1.344       .  A
C644        C645   1.391       .  A
C644        H647   1.078       .  S
C645        C646   1.391   1_565  A
C645        C751   1.497       .  S
C646        H648   1.080       .  S
N649        N650   1.319   1_556  A
N649        C653   1.353       .  A
N649       Cu657   2.084       .  S
N650        C651   1.337       .  A
N650       Cu656   2.048   1_455  S
C651        C652   1.380       .  A
C651        H654   1.082       .  S
C652        C653   1.391   1_554  A
C652        C711   1.479       .  S
C653        H655   1.082       .  S
Cu656       N659   2.048       .  S
Cu657       N667   2.088   1_455  S
Cu658       N660   2.088       .  S
Cu658       N666   2.092       .  S
N659        N660   1.318   1_554  A
N659        C663   1.335       .  A
N660        C661   1.353       .  A
C661        C662   1.395       .  A
C661        H664   1.081       .  S
C662        C663   1.383   1_556  A
C662        C698   1.488       .  S
C663        H665   1.081       .  S
N666        N667   1.327       .  A
N666        C670   1.346       .  A
N667        C668   1.345       .  A
C668        C669   1.383       .  A
C668        H671   1.082   1_655  S
C669        C670   1.385       .  A
C669        C781   1.482       .  S
C670        H672   1.082       .  S
N673        N674   1.319       .  A
N673        C677   1.352       .  A
N673       Cu681   2.084       .  S
N674        C675   1.337       .  A
N674       Cu680   2.054   1_545  S
C675        C676   1.382       .  A
C675        H678   1.081       .  S
C676        C677   1.391       .  A
C676        C701   1.483       .  S
C677        H679   1.082       .  S
Cu680       N683   2.055       .  S
Cu681       N691   2.087       .  S
Cu682       N684   2.082       .  S
Cu682       N690   2.085       .  S
N683        N684   1.319       .  A
N683        C687   1.338       .  A
N684        C685   1.352       .  A
C685        C686   1.390       .  A
C685        H688   1.082       .  S
C686        C687   1.381       .  A
C686        C721   1.479       .  S
C687        H689   1.082       .  S
N690        N691   1.326   1_565  A
N690        C694   1.345       .  A
N691        C692   1.345       .  A
C692        C693   1.386   1_545  A
C692        H695   1.081       .  S
C693        C694   1.386       .  A
C693        C741   1.485       .  S
C694        H696   1.082       .  S
C697        C702   1.389       .  A
C697        H704   1.082       .  S
C698        C699   1.410   1_556  A
C699        C700   1.408       .  A
C699        F706   1.356       .  S
C700        H705   1.083       .  S
C701        C702   1.405       .  A
C702        F703   1.357       .  S
C707        C712   1.390       .  A
C707        H714   1.083       .  S
C708        C709   1.409   1_554  A
C709        C710   1.408       .  A
C709        F716   1.357       .  S
C710        C711   1.406   1_556  A
C710        H715   1.083       .  S
C712        F713   1.358       .  S
C717        C722   1.391       .  A
C717        H724   1.083       .  S
C718        C719   1.409       .  A
C719        C720   1.407       .  A
C719        F726   1.357       .  S
C720        C721   1.406       .  A
C720        H725   1.083       .  S
C722        F723   1.358       .  S
C727        C732   1.408       .  A
C727        H734   1.083       .  S
C728        C729   1.406       .  A
C729        C730   1.390       .  A
C729        F736   1.358       .  S
C730        C731   1.403       .  A
C730        H735   1.083       .  S
C732        F733   1.357       .  S
C737        C742   1.398       .  A
C737        H744   1.083       .  S
C738        C739   1.408       .  A
C739        C740   1.398       .  A
C739        F746   1.357       .  S
C740        H745   1.082       .  S
C741        C742   1.409   1_565  A
C742        F743   1.356       .  S
C747        C752   1.398       .  A
C747        H754   1.083       .  S
C748        C749   1.408   1_565  A
C749        C750   1.399       .  A
C749        F756   1.357       .  S
C750        C751   1.409   1_545  A
C750        H755   1.080       .  S
C752        F753   1.354       .  S
C757        C758   1.400       .  A
C757        C762   1.398       .  A
C757        H764   1.084       .  S
C758        C759   1.403   1_565  A
C759        C760   1.399       .  A
C759        F766   1.358       .  S
C760        C761   1.406   1_545  A
C760        H765   1.083       .  S
C761        C762   1.410       .  A
C762        F763   1.357       .  S
C767        C768   1.399   1_545  A
C767        C772   1.398       .  A
C767        H774   1.084       .  S
C768        C769   1.401       .  A
C769        C770   1.399       .  A
C769        F776   1.358       .  S
C770        C771   1.408       .  A
C770        H775   1.083       .  S
C771        C772   1.412   1_565  A
C772        F773   1.357       .  S
C777        C778   1.404       .  A
C777        C782   1.398       .  A
C777        H784   1.083       .  S
C779        C780   1.399       .  A
C779        F786   1.357   1_655  S
C780        H785   1.083   1_655  S
C781        C782   1.407       .  A
C782        F783   1.357       .  S
C787        C792   1.399       .  A
C787        H794   1.083       .  S
C788        C789   1.408       .  A
C789        C790   1.398       .  A
C789        F796   1.358   1_655  S
C790        C791   1.407       .  A
C790        H795   1.081   1_655  S
C792        F793   1.355       .  S
C797        C798   1.403       .  A
C797        C802   1.398       .  A
C797        H804   1.083       .  S
C798        C799   1.405       .  A
C799        C800   1.399       .  A
C799        F806   1.358   1_655  S
C800        C801   1.404       .  A
C800        H805   1.083   1_655  S
C801        C802   1.406       .  A
C802        F803   1.358       .  S
C807        C808   1.404       .  A
C807        C812   1.398       .  A
C807        H814   1.083   1_655  S
C808        C809   1.406       .  A
C809        C810   1.399       .  A
C809        F816   1.357       .  S
C810        C811   1.403       .  A
C810        H815   1.083       .  S
C811        C812   1.404       .  A
C812        F813   1.358   1_655  S
C817        C818   1.407       .  A
C817        C822   1.396       .  A
C817        H824   1.081       .  S
C818        C819   1.412       .  A
C819        C820   1.398       .  A
C819        F826   1.355       .  S
C820        C821   1.404       .  A
C820        H825   1.083       .  S
C821        C822   1.408       .  A
C822        F823   1.358       .  S
C827        C828   1.407       .  A
C827        C832   1.407       .  A
C827        H834   1.083       .  S
C828        C829   1.406       .  A
C829        C830   1.388       .  A
C829        F836   1.357       .  S
C830        C831   1.402       .  A
C830        H835   1.083       .  S
C831        C832   1.408       .  A
C832        F833   1.357       .  S
C837        C838   1.408       .  A
C837        C842   1.397       .  A
C837        H844   1.081       .  S
C838        C839   1.412       .  A
C839        C840   1.397       .  A
C839        F846   1.355       .  S
C840        C841   1.404       .  A
C840        H845   1.083       .  S
C841        C842   1.407       .  A
C842        F843   1.358       .  S
C847        C848   1.402       .  A
C847        C852   1.387       .  A
C847        H854   1.083       .  S
C848        C849   1.409       .  A
C849        C850   1.408       .  A
C849        F856   1.357       .  S
C850        C851   1.407       .  A
C850        H855   1.083       .  S
C851        C852   1.406       .  A
C852        F853   1.358       .  S
C857        C858   1.407       .  A
C857        C862   1.398       .  A
C857        H864   1.082       .  S
C858        C859   1.410       .  A
C859        C860   1.396       .  A
C859        F866   1.356       .  S
C860        C861   1.404       .  A
C860        H865   1.083       .  S
C861        C862   1.408       .  A
C862        F863   1.357       .  S
C867        C868   1.404       .  A
C867        C872   1.388       .  A
C867        H874   1.082       .  S
C868        C869   1.410       .  A
C869        C870   1.408       .  A
C869        F876   1.356       .  S
C870        C871   1.407       .  A
C870        H875   1.083       .  S
C871        C872   1.405       .  A
C872        F873   1.358       .  S
C877        C878   1.407       .  A
C877        C882   1.407       .  A
C877        H884   1.083       .  S
C878        C879   1.405       .  A
C879        C880   1.388       .  A
C879        F886   1.358       .  S
C880        C881   1.403       .  A
C880        H885   1.083       .  S
C881        C882   1.409       .  A
C882        F883   1.357       .  S
C887        C888   1.406       .  A
C887        C892   1.398       .  A
C887        H894   1.082       .  S
C888        C889   1.409       .  A
C889        C890   1.397       .  A
C889        F896   1.356       .  S
C890        C891   1.404       .  A
C890        H895   1.083       .  S
C891        C892   1.407       .  A
C892        F893   1.357       .  S
