geometry optimzed in LAMMPS
_audit_creation_date              2020-12-01 
_audit_creation_method            'lammps2cif' 
_symmetry_space_group_name_H-M    'P1' 
_symmetry_Int_Tables_number       1 
_symmetry_cell_setting            triclinic 
loop_ 
_symmetry_equiv_pos_as_xyz 
  x,y,z 
_cell_length_a                    32.79650691 
_cell_length_b                    33.081302954898526 
_cell_length_c                    30.80400811165963 
_cell_angle_alpha                 90.08598200839386 
_cell_angle_beta                  89.60596995658325 
_cell_angle_gamma                 89.80983676772343 
loop_ 
_atom_site_label 
_atom_site_type_symbol 
_atom_site_fract_x 
_atom_site_fract_y 
_atom_site_fract_z 
_atom_site_charge 
O1          O  0.46600335  0.43493346  0.44553016    -0.81000
O2          O  0.03708888  0.06821168  0.44351634    -0.81000
O3          O  0.43207625  0.03859347  0.44612328    -0.81000
O4          O  0.07084113  0.46384873  0.44543095    -0.81000
O5          O  0.46646923  0.09193387  0.46696031    -0.81100
O6          O  0.03650299  0.41073779  0.46735461    -0.81000
O7          O  0.09210588  0.03564261  0.46414453    -0.81000
O8          O  0.41068455  0.46699630  0.46715836    -0.81000
C9          C  0.42776027  0.44095297  0.44374733     1.08700
C10         C  0.07520414  0.06148663  0.44058134     1.08600
C11         C  0.43963340  0.07623392  0.44384195     1.08700
C12         C  0.06323939  0.42621572  0.44367345     1.08600
O13         O  0.03164591  0.42423997  0.04884837    -0.81000
O14         O  0.47243698  0.07992093  0.04854095    -0.81100
O15         O  0.42362698  0.47111771  0.04823081    -0.81000
O16         O  0.08008544  0.03154351  0.04743178    -0.81000
O17         O  0.04797414  0.08702057  0.02739670    -0.81100
O18         O  0.45591512  0.41522831  0.02880860    -0.81000
O19         O  0.08799348  0.45615842  0.02989743    -0.81000
O20         O  0.41608734  0.04746066  0.03153012    -0.81000
Co21       Co  0.99825336  0.44323447  0.99901440     1.51500
Co22       Co  0.50521414  0.05977479  0.49801390     1.51700
Co23       Co  0.44271513  0.50546529  0.49904342     1.51600
Co24       Co  0.06068864  0.99777812  0.99801905     1.51500
O25         O  0.00168993  0.50156321  0.50545469    -1.42900
C26         C  0.06984802  0.42999892  0.05225724     1.08600
C27         C  0.43433313  0.07395379  0.05321318     1.08700
C28         C  0.42977035  0.43316736  0.05148982     1.08600
C29         C  0.07391936  0.06945881  0.05037801     1.08600
C30         C  0.10087825  0.08731894  0.41265307     0.85600
C31         C  0.14738720  0.08121661  0.41668356    -0.54600
C32         C  0.16960066  0.10730970  0.39163097     0.08500
C33         C  0.14312547  0.13675033  0.36544053     0.19500
C34         C  0.09369966  0.13163994  0.42404563    -0.55300
C35         C  0.11560206  0.15740239  0.39918607     0.08600
C36         C  0.09209316  0.08327403  0.36434308    -0.54900
C37         C  0.11425792  0.10935666  0.33967425     0.09200
H38         H  0.16151294  0.05899181  0.43776914     0.13700
H39         H  0.16027148  0.15893127  0.34563674    -0.00500
H40         H  0.07313077  0.14184343  0.44966763     0.14000
H41         H  0.07055525  0.06186093  0.35082568     0.13800
C42         C  0.08768645  0.39920382  0.41582032     0.85600
C43         C  0.08310551  0.35384093  0.42555658    -0.54600
C44         C  0.10756265  0.33017547  0.40038397     0.08500
C45         C  0.13312882  0.35399724  0.36711162     0.19500
C46         C  0.13304791  0.40753131  0.42078602    -0.55300
C47         C  0.15737984  0.38517504  0.39400457     0.08600
C48         C  0.07830935  0.40366371  0.36777194    -0.54900
C49         C  0.10190085  0.37945605  0.34205262     0.09200
H50         H  0.06325519  0.34145610  0.45056167     0.13700
H51         H  0.15179358  0.33465575  0.34558164    -0.00500
H52         H  0.14435842  0.42854693  0.44483550     0.14000
H53         H  0.05499255  0.42389039  0.35533901     0.13800
C54         C  0.09479850  0.40466791  0.08121694     0.85600
C55         C  0.14092954  0.41269653  0.07750683    -0.54600
C56         C  0.16360948  0.38878011  0.10372872     0.08500
C57         C  0.13859695  0.35918481  0.13097748     0.19500
C58         C  0.09002611  0.35977768  0.07155800    -0.55300
C59         C  0.11274071  0.33612376  0.09793987     0.08600
C60         C  0.08450895  0.40972244  0.12939676    -0.54900
C61         C  0.10794972  0.38604622  0.15571053     0.09200
H62         H  0.15473649  0.43498643  0.05615140     0.13700
H63         H  0.15770594  0.33929851  0.15159061    -0.00500
H64         H  0.06997592  0.34767130  0.04681495     0.14000
H65         H  0.06040586  0.42951646  0.14120753     0.13800
C66         C  0.09781178  0.09497046  0.07989217     0.85600
C67         C  0.09176463  0.14053163  0.07196763    -0.54600
C68         C  0.11421014  0.16400276  0.09850098     0.08500
C69         C  0.14043507  0.14037096  0.13075199     0.19500
C70         C  0.14346358  0.08807305  0.07499364    -0.55300
C71         C  0.16576553  0.11095274  0.10262458     0.08600
C72         C  0.08791410  0.08860959  0.12804052    -0.54900
C73         C  0.11037506  0.11280570  0.15450457     0.09200
H74         H  0.07175914  0.15349016  0.04764121     0.13700
H75         H  0.15884170  0.15973481  0.15262164    -0.00500
H76         H  0.15700591  0.06718612  0.05170496     0.14000
H77         H  0.06583639  0.06685711  0.14008473     0.13800
C78         C  0.41502646  0.10308075  0.41615113     0.85600
C79         C  0.42095732  0.14877706  0.42421792    -0.54600
C80         C  0.39654882  0.17235978  0.39914635     0.08500
C81         C  0.36910946  0.14840371  0.36837409     0.19500
C82         C  0.36957028  0.09556758  0.42286582    -0.55300
C83         C  0.34519614  0.11959078  0.39840523     0.08600
C84         C  0.42290929  0.09710075  0.36795370    -0.54900
C85         C  0.39886503  0.12086656  0.34294494     0.09200
H86         H  0.44183351  0.16144580  0.44781645     0.13700
H87         H  0.34971936  0.16778897  0.34747670    -0.00500
H88         H  0.35817607  0.07154768  0.44339862     0.14000
H89         H  0.44473517  0.07551162  0.35468394     0.13800
C90         C  0.40945998  0.09836949  0.08380496     0.85600
C91         C  0.36340895  0.09232871  0.07763618    -0.54600
C92         C  0.34017075  0.11468410  0.10496021     0.08500
C93         C  0.36476206  0.14047791  0.13685731     0.19500
C94         C  0.41579658  0.14394789  0.07935292    -0.55300
C95         C  0.39350852  0.16625233  0.10846139     0.08600
C96         C  0.41744996  0.08856777  0.13145152    -0.54900
C97         C  0.39353134  0.11058449  0.15894362     0.09200
H98         H  0.34991518  0.07265436  0.05342426     0.13700
H99         H  0.34565602  0.15772269  0.16035874    -0.00500
H100        H  0.43491141  0.15689972  0.05423637     0.14000
H101        H  0.43991788  0.06672827  0.14245273     0.13800
C102        C  0.40610494  0.40870069  0.08212602     0.85600
C103        C  0.41296891  0.36248898  0.07865813    -0.54600
C104        C  0.39016107  0.34086253  0.10755380     0.08500
C105        C  0.36339410  0.36753108  0.13690623     0.19500
C106        C  0.36048114  0.41469832  0.07667158    -0.55300
C107        C  0.33798966  0.39274617  0.10520070     0.08600
C108        C  0.41553645  0.41917547  0.12899860    -0.54900
C109        C  0.39290741  0.39755869  0.15755876     0.09200
H110        H  0.43330084  0.34811093  0.05526760     0.13700
H111        H  0.34562592  0.35104254  0.16175815    -0.00500
H112        H  0.34718810  0.43439878  0.05233586     0.14000
H113        H  0.43914585  0.44025758  0.13856899     0.13800
C114        C  0.40278444  0.41523217  0.41575492     0.85600
C115        C  0.35604369  0.41926954  0.42036742    -0.54600
C116        C  0.33481445  0.39359887  0.39372840     0.08500
C117        C  0.36329195  0.36709465  0.36539645     0.19500
C118        C  0.41156240  0.37069048  0.42449519    -0.55300
C119        C  0.39116769  0.34549666  0.39782365     0.08600
C120        C  0.41192272  0.42233577  0.36803893    -0.54900
C121        C  0.39124869  0.39697263  0.34175195     0.09200
H122        H  0.34147136  0.43961791  0.44341819     0.13700
H123        H  0.34833013  0.34679935  0.34209281    -0.00500
H124        H  0.43212167  0.35990729  0.44951253     0.14000
H125        H  0.43313950  0.44497481  0.35606309     0.13800
C126        C  0.40449962  0.36344081  0.22630535    -0.27200
C127        C  0.39786160  0.39978207  0.20436589    -0.15300
C128        C  0.39146222  0.43600150  0.22764892     0.35400
C129        C  0.39058689  0.43476860  0.27279535    -0.26600
C130        C  0.39564945  0.39796824  0.29464124    -0.15900
C131        C  0.40339743  0.36223660  0.27134996     0.36500
N132        N  0.41030834  0.32473743  0.29326902    -0.90100
H133        H  0.40965547  0.33565230  0.20832417     0.17600
H134        H  0.38439906  0.46230443  0.29083948     0.17600
N135        N  0.38343315  0.47370407  0.20649148    -0.89200
H136        H  0.43873115  0.31361381  0.28330656     0.34900
H137        H  0.38812902  0.30419407  0.28319068     0.40000
H138        H  0.35885945  0.46993168  0.18548256     0.39700
H139        H  0.40912524  0.48207968  0.18843928     0.34500
C140        C  0.42913860  0.27604619  0.10821829    -0.27200
C141        C  0.39129413  0.29618907  0.11004677    -0.15300
C142        C  0.35532291  0.27309632  0.11408178     0.35400
C143        C  0.35817930  0.23149681  0.11784819    -0.26600
C144        C  0.39498577  0.21096006  0.11132592    -0.15900
C145        C  0.43142722  0.23374406  0.10820779     0.36500
N146        N  0.47108967  0.21536269  0.10845953    -0.90100
H147        H  0.45714818  0.29328605  0.10648749     0.17600
H148        H  0.33068385  0.21537800  0.12522809     0.17600
N149        N  0.31519041  0.28990572  0.11019757    -0.89200
H150        H  0.47671365  0.20098412  0.07890859     0.34900
H151        H  0.47243092  0.19430323  0.13370788     0.40000
H152        H  0.31416664  0.30872742  0.08290020     0.39700
H153        H  0.30694794  0.30550658  0.13814357     0.34500
C154        C  0.36816995  0.09482733  0.27636795    -0.27200
C155        C  0.39919151  0.11718430  0.29580804    -0.15300
C156        C  0.43076865  0.13397799  0.27056718     0.35400
C157        C  0.42957971  0.12941412  0.22541746    -0.26600
C158        C  0.39713470  0.10904415  0.20594536    -0.15900
C159        C  0.36622482  0.09140136  0.23126894     0.36500
N160        N  0.33267527  0.07103494  0.21101082    -0.90100
H161        H  0.34560289  0.07991286  0.29640217     0.17600
H162        H  0.45300048  0.14302350  0.20523630     0.17600
N163        N  0.46353368  0.15555879  0.29083947    -0.89200
H164        H  0.31256160  0.05969270  0.23445743     0.34900
H165        H  0.34441634  0.04616007  0.19407917     0.40000
H166        H  0.45112353  0.18139218  0.30542956     0.39700
H167        H  0.48445482  0.16559683  0.26746435     0.34500
C168        C  0.36130421  0.27996110  0.41644928    -0.27200
C169        C  0.39495224  0.30147704  0.40091434    -0.15300
C170        C  0.43107276  0.28063856  0.38907203     0.35400
C171        C  0.43106923  0.23835552  0.38987083    -0.26600
C172        C  0.39615239  0.21679660  0.40193567    -0.15900
C173        C  0.36111478  0.23766577  0.41613466     0.36500
N174        N  0.32576801  0.21582827  0.43055009    -0.90100
H175        H  0.33540576  0.29632804  0.42952393     0.17600
H176        H  0.45790278  0.22208832  0.37937783     0.17600
N177        N  0.46799643  0.30098401  0.37630571    -0.89200
H178        H  0.30221152  0.23577460  0.43898012     0.34900
H179        H  0.33382406  0.20069467  0.45897991     0.40000
H180        H  0.46419301  0.33220253  0.37441204     0.39700
H181        H  0.47591347  0.29123712  0.34506728     0.34500
C182        C  0.23035915  0.14597762  0.09495886    -0.27200
C183        C  0.21033641  0.10962464  0.10332270    -0.15300
C184        C  0.23330918  0.07365985  0.10978945     0.35400
C185        C  0.27580308  0.07636693  0.11111387    -0.26600
C186        C  0.29550577  0.11318383  0.10342601    -0.15900
C187        C  0.27265181  0.14726548  0.09144944     0.36500
N188        N  0.29212220  0.18201901  0.07302056    -0.90100
H189        H  0.21291561  0.17317671  0.08913744     0.17600
H190        H  0.29363785  0.04944562  0.11774020     0.17600
N191        N  0.21537684  0.03425906  0.11499216    -0.89200
H192        H  0.27067060  0.20400833  0.06450640     0.34900
H193        H  0.30679918  0.17311339  0.04436616     0.40000
H194        H  0.18362079  0.03511427  0.11520023     0.39700
H195        H  0.22405721  0.02299683  0.14519799     0.34500
C196        C  0.09000873  0.22887556  0.12810434    -0.27200
C197        C  0.11243449  0.20810369  0.09634793    -0.15300
C198        C  0.13077382  0.22928359  0.06172701     0.35400
C199        C  0.13098775  0.27159494  0.06291244    -0.26600
C200        C  0.11069943  0.29221405  0.09634059    -0.15900
C201        C  0.08764255  0.27103309  0.12736483     0.36700
N202        N  0.06120913  0.29238390  0.15698747    -0.90100
H203        H  0.07324343  0.21215981  0.15244831     0.17600
H204        H  0.14652136  0.28853624  0.03768372     0.17600
N205        N  0.14754830  0.20794902  0.02498883    -0.89200
H206        H  0.04607216  0.27218229  0.17753293     0.34900
H207        H  0.03878576  0.30691011  0.13868262     0.40000
H208        H  0.17175569  0.18999139  0.03553238     0.39700
H209        H  0.15975432  0.22826545  0.50260614     0.34500
C210        C  0.22980891  0.38641216  0.06539727    -0.27200
C211        C  0.20823921  0.39062308  0.10454478    -0.15300
C212        C  0.22923403  0.39598012  0.14385451     0.35400
C213        C  0.27189365  0.39627280  0.14333348    -0.26600
C214        C  0.29340815  0.39203893  0.10423131    -0.15900
C215        C  0.27231824  0.38672509  0.06492897     0.36500
N216        N  0.29391530  0.38019320  0.02486369    -0.90100
H217        H  0.21357389  0.38192614  0.03522987     0.17600
H218        H  0.28841399  0.40060403  0.17333416     0.17600
N219        N  0.20716446  0.40189031  0.18384649    -0.89200
H220        H  0.28519005  0.40272615  0.00301117     0.34900
H221        H  0.28493887  0.35231717  0.01212002     0.40000
H222        H  0.19112479  0.42917272  0.18132374     0.39700
H223        H  0.22727263  0.40521929  0.20976657     0.34500
C224        C  0.09541556  0.41757142  0.27340826    -0.27200
C225        C  0.09989853  0.38025371  0.29436328    -0.15300
C226        C  0.10508091  0.34487628  0.26953428     0.35400
C227        C  0.10832291  0.34777784  0.22454738    -0.26600
C228        C  0.10398379  0.38500906  0.20340969    -0.15900
C229        C  0.09732245  0.42025094  0.22821982     0.36500
N230        N  0.09516789  0.45914252  0.20816637    -0.90100
H231        H  0.09210310  0.44514758  0.29215759     0.17600
H232        H  0.11408357  0.32043315  0.20633352     0.17600
N233        N  0.10605872  0.30582059  0.28957003    -0.89200
H234        H  0.11820657  0.47676278  0.22161532     0.34900
H235        H  0.06717574  0.47232121  0.21661656     0.40000
H236        H  0.13359297  0.29175225  0.28106677     0.39700
H237        H  0.08234901  0.28856858  0.27673619     0.34500
C238        C  0.22576672  0.35649972  0.37862655    -0.27200
C239        C  0.20257848  0.38974298  0.39195712    -0.15300
C240        C  0.22317633  0.42595813  0.40301630     0.35400
C241        C  0.26608547  0.42632644  0.40349906    -0.26600
C242        C  0.28918960  0.39171492  0.39264857    -0.15900
C243        C  0.26803315  0.35647348  0.37995141     0.36500
N244        N  0.28842326  0.31947428  0.36943426    -0.90100
H245        H  0.21170376  0.32891772  0.36809717     0.17600
H246        H  0.28138240  0.45429355  0.41135378     0.17600
N247        N  0.20098296  0.46264670  0.41199260    -0.89200
H248        H  0.28137181  0.31195091  0.33735764     0.34900
H249        H  0.27656237  0.29671963  0.38932822     0.40000
H250        H  0.18585329  0.47101537  0.38360292     0.39700
H251        H  0.22072637  0.48630171  0.41968830     0.34500
C252        C  0.09196129  0.14252929  0.22539172    -0.27200
C253        C  0.10893227  0.11041468  0.20184887    -0.15300
C254        C  0.12734025  0.07786496  0.22372908     0.35400
C255        C  0.12725822  0.07724290  0.26888537    -0.26600
C256        C  0.11144687  0.10998747  0.29239496    -0.15900
C257        C  0.09350423  0.14283013  0.27054919     0.36500
N258        N  0.07588082  0.17627656  0.29345893    -0.90100
H259        H  0.07795384  0.16764523  0.20870574     0.17600
H260        H  0.14122846  0.05202386  0.28566499     0.17600
N261        N  0.14910374  0.04692568  0.20083942    -0.89200
H262        H  0.09874254  0.19041500  0.31138179     0.34900
H263        H  0.05394970  0.16488472  0.31480170     0.40000
H264        H  0.17307829  0.06099824  0.18437796     0.39700
H265        H  0.12972541  0.03388021  0.17807422     0.34500
C266        C  0.28080478  0.11567232  0.35795771    -0.27200
C267        C  0.30024549  0.11591969  0.39822502    -0.15300
C268        C  0.27632282  0.11259978  0.43662074     0.35400
C269        C  0.23392371  0.11022832  0.43343420    -0.26600
C270        C  0.21466557  0.10936665  0.39288077    -0.15900
C271        C  0.23879889  0.11095112  0.35471658     0.36500
N272        N  0.22234282  0.10483747  0.31228521    -0.90100
H273        H  0.29837883  0.11824131  0.32835980     0.17600
H274        H  0.21584812  0.10897930  0.46300612     0.17600
N275        N  0.29356809  0.11296390  0.47924478    -0.89200
H276        H  0.20359306  0.12893052  0.30386188     0.34900
H277        H  0.20560430  0.07800232  0.31241898     0.40000
H278        H  0.31562435  0.13556240  0.48103572     0.39700
H279        H  0.30699724  0.08497483  0.98540050     0.34500
C280        C  0.14785470  0.22359477  0.41046784    -0.27200
C281        C  0.11239707  0.20133412  0.40371062    -0.15300
C282        C  0.07455478  0.22112545  0.40056671     0.35400
C283        C  0.07322681  0.26338890  0.40026975    -0.26600
C284        C  0.10909542  0.28584319  0.40480059    -0.15900
C285        C  0.14615880  0.26579615  0.41313332     0.36500
N286        N  0.18135873  0.28821773  0.42613292    -0.90100
H287        H  0.17661229  0.20792832  0.41491595     0.17600
H288        H  0.04438406  0.27866929  0.39558459     0.17600
N289        N  0.03779236  0.19838239  0.39600730    -0.89200
H290        H  0.20600803  0.26886395  0.43174987     0.34900
H291        H  0.17445381  0.30223776  0.45575641     0.40000
H292        H  0.02405991  0.20719361  0.36702707     0.39700
H293        H  0.01832942  0.20604547  0.42176339     0.34500
O294        O  0.46600148  0.43493307  0.94552944    -0.81000
O295        O  0.03708672  0.06820926  0.94351617    -0.81000
O296        O  0.43207436  0.03859158  0.94612341    -0.81000
O297        O  0.07083927  0.46384761  0.94543068    -0.81000
O298        O  0.46646765  0.09193174  0.96696042    -0.81100
O299        O  0.03650084  0.41073673  0.96735398    -0.81000
O300        O  0.09210402  0.03564089  0.96414462    -0.81000
O301        O  0.41068272  0.46699542  0.96715834    -0.81000
C302        C  0.42775833  0.44095233  0.94374701     1.08700
C303        C  0.07520204  0.06148475  0.94058142     1.08600
C304        C  0.43963161  0.07623205  0.94384215     1.08700
C305        C  0.06323744  0.42621465  0.94367312     1.08600
O306        O  0.03164747  0.42424195  0.54884938    -0.81000
O307        O  0.47243854  0.07992292  0.54854111    -0.81100
O308        O  0.42362874  0.47111941  0.54823145    -0.81000
O309        O  0.08008699  0.03154534  0.54743186    -0.81000
O310        O  0.04797590  0.08702258  0.52739695    -0.81100
O311        O  0.45591711  0.41523005  0.52880946    -0.81000
O312        O  0.08799502  0.45615995  0.52989771    -0.81000
O313        O  0.41608879  0.04746309  0.53152977    -0.81000
Co314      Co  0.99825533  0.44323581  0.49901483     1.51500
Co315      Co  0.50521249  0.05977252  0.99801394     1.51700
Co316      Co  0.44271383  0.50546391  0.99904320     1.51600
Co317      Co  0.06069014  0.99778012  0.49801895     1.51500
O318        O  0.00168844  0.50156167  0.00545540    -1.42900
C319        C  0.06984960  0.43000076  0.55225799     1.08600
C320        C  0.43433466  0.07395586  0.55321327     1.08700
C321        C  0.42977232  0.43316913  0.55149065     1.08600
C322        C  0.07392102  0.06946065  0.55037826     1.08600
C323        C  0.10087586  0.08731763  0.91265360     0.85600
C324        C  0.14738472  0.08121524  0.91668392    -0.54600
C325        C  0.16959817  0.10730865  0.89163181     0.08500
C326        C  0.14312304  0.13674964  0.86544171     0.19500
C327        C  0.09369718  0.13163845  0.92404695    -0.55300
C328        C  0.11559949  0.15740131  0.89918767     0.08600
C329        C  0.09209059  0.08327343  0.86434365    -0.54900
C330        C  0.11425525  0.10935646  0.83967520     0.09200
H331        H  0.16151050  0.05899004  0.93776899     0.13700
H332        H  0.16027035  0.15892988  0.84563684    -0.00500
H333        H  0.07312826  0.14184150  0.94966915     0.14000
H334        H  0.07055279  0.06186038  0.85082594     0.13800
C335        C  0.08768459  0.39920269  0.91582034     0.85600
C336        C  0.08310283  0.35383989  0.92555638    -0.54600
C337        C  0.10755996  0.33017417  0.90038416     0.08500
C338        C  0.13312701  0.35399565  0.86711228     0.19500
C339        C  0.13304613  0.40752954  0.92078681    -0.55300
C340        C  0.15737806  0.38517303  0.89400554     0.08600
C341        C  0.07830826  0.40366294  0.86777188    -0.54900
C342        C  0.10189991  0.37945516  0.84205289     0.09200
H343        H  0.06325214  0.34145527  0.95056126     0.13700
H344        H  0.15179195  0.33465396  0.84558268    -0.00500
H345        H  0.14435667  0.42854514  0.94483630     0.14000
H346        H  0.05499215  0.42389023  0.85533862     0.13800
C347        C  0.09480019  0.40466982  0.58121773     0.85600
C348        C  0.14093122  0.41269785  0.57750638    -0.54600
C349        C  0.16361139  0.38878161  0.60372813     0.08500
C350        C  0.13859922  0.35918689  0.63097791     0.19500
C351        C  0.09002705  0.35977947  0.57155970    -0.55300
C352        C  0.11274190  0.33612566  0.59794148     0.08600
C353        C  0.08451176  0.40972514  0.62939777    -0.54900
C354        C  0.10795279  0.38604884  0.65571127     0.09200
H355        H  0.15473801  0.43498744  0.55615045     0.13700
H356        H  0.15770854  0.33930072  0.65159083    -0.00500
H357        H  0.06997630  0.34767296  0.54681724     0.14000
H358        H  0.06040907  0.42951946  0.64120888     0.13800
C359        C  0.09781329  0.09497213  0.57989282     0.85600
C360        C  0.09176618  0.14053337  0.57196856    -0.54600
C361        C  0.11421157  0.16400445  0.59850211     0.08500
C362        C  0.14043615  0.14037238  0.63075339     0.19500
C363        C  0.14346515  0.08807479  0.57499469    -0.55300
C364        C  0.16576690  0.11095441  0.60262592     0.08600
C365        C  0.08791522  0.08861093  0.62804099    -0.54900
C366        C  0.11037590  0.11280685  0.65450549     0.09200
H367        H  0.07176084  0.15349202  0.54764209     0.13700
H368        H  0.15884259  0.15973607  0.65262337    -0.00500
H369        H  0.15700767  0.06718799  0.55170599     0.14000
H370        H  0.06583735  0.06685841  0.64008478     0.13800
C371        C  0.41502452  0.10307941  0.91615179     0.85600
C372        C  0.42095486  0.14877557  0.92422021    -0.54600
C373        C  0.39654636  0.17235888  0.89914927     0.08500
C374        C  0.36910729  0.14840344  0.86837604     0.19500
C375        C  0.36956843  0.09556555  0.92286574    -0.55300
C376        C  0.34519398  0.11958944  0.89840617     0.08600
C377        C  0.42290768  0.09710096  0.86795422    -0.54900
C378        C  0.39886327  0.12086723  0.84294602     0.09200
H379        H  0.44183098  0.16144380  0.94781912     0.13700
H380        H  0.34971722  0.16778924  0.84747921    -0.00500
H381        H  0.35817499  0.07154446  0.94339678     0.14000
H382        H  0.44473380  0.07551237  0.85468390     0.13800
C383        C  0.40946151  0.09837123  0.58380544     0.85600
C384        C  0.36341044  0.09233044  0.57763671    -0.54600
C385        C  0.34017229  0.11468556  0.60496100     0.08500
C386        C  0.36476361  0.14047936  0.63685812     0.19500
C387        C  0.41579806  0.14394965  0.57935375    -0.55300
C388        C  0.39351005  0.16625393  0.60846239     0.08600
C389        C  0.41745151  0.08856921  0.63145198    -0.54900
C390        C  0.39353293  0.11058583  0.65894425     0.09200
H391        H  0.34991662  0.07265619  0.55342470     0.13700
H392        H  0.34565755  0.15772416  0.66035955    -0.00500
H393        H  0.43491283  0.15690162  0.55423722     0.14000
H394        H  0.43991928  0.06672947  0.64245303     0.13800
C395        C  0.40610667  0.40870235  0.58212654     0.85600
C396        C  0.41297094  0.36249074  0.57865833    -0.54600
C397        C  0.39016273  0.34086398  0.60755324     0.08500
C398        C  0.36339496  0.36753198  0.63690538     0.19500
C399        C  0.36048298  0.41469987  0.57667122    -0.55300
C400        C  0.33799114  0.39274749  0.60519979     0.08600
C401        C  0.41553721  0.41917686  0.62899950    -0.54900
C402        C  0.39290766  0.39755959  0.65755895     0.09200
H403        H  0.43330335  0.34811289  0.55526812     0.13700
H404        H  0.34562537  0.35104189  0.66175621    -0.00500
H405        H  0.34719024  0.43440056  0.55233551     0.14000
H406        H  0.43914605  0.44025930  0.63857071     0.13800
C407        C  0.40278237  0.41523142  0.91575497     0.85600
C408        C  0.35604163  0.41926863  0.92036779    -0.54600
C409        C  0.33481240  0.39359770  0.89372907     0.08500
C410        C  0.36328979  0.36709346  0.86539701     0.19500
C411        C  0.41156049  0.37068985  0.92449549    -0.55300
C412        C  0.39116560  0.34549578  0.89782441     0.08600
C413        C  0.41192032  0.42233491  0.86803896    -0.54900
C414        C  0.39124622  0.39697166  0.84175221     0.09200
H415        H  0.34146929  0.43961705  0.94341850     0.13700
H416        H  0.34832787  0.34679796  0.84209357    -0.00500
H417        H  0.43211986  0.35990690  0.94951287     0.14000
H418        H  0.43313680  0.44497413  0.85606290     0.13800
C419        C  0.40449954  0.36344146  0.72630537    -0.27200
C420        C  0.39786059  0.39978271  0.70436620    -0.15300
C421        C  0.39145881  0.43600158  0.72764948     0.35400
C422        C  0.39058270  0.43476819  0.77279591    -0.26600
C423        C  0.39564657  0.39796781  0.79464149    -0.15900
C424        C  0.40339642  0.36223675  0.77134996     0.36500
N425        N  0.41030856  0.32473771  0.79326881    -0.90100
H426        H  0.40965697  0.33565337  0.70832395     0.17600
H427        H  0.38439342  0.46230358  0.79084027     0.17600
N428        N  0.38342813  0.47370389  0.70649219    -0.89200
H429        H  0.43873171  0.31361543  0.78330677     0.34900
H430        H  0.38813000  0.30419332  0.78318977     0.40000
H431        H  0.35885538  0.46993057  0.68548344     0.39700
H432        H  0.40912060  0.48208081  0.68843979     0.34500
C433        C  0.42914046  0.27604771  0.60821874    -0.27200
C434        C  0.39129604  0.29619067  0.61004577    -0.15300
C435        C  0.35532452  0.27309789  0.61407861     0.35400
C436        C  0.35818088  0.23149874  0.61784811    -0.26600
C437        C  0.39498735  0.21096168  0.61132704    -0.15900
C438        C  0.43142890  0.23374558  0.60820852     0.36500
N439        N  0.47109131  0.21536417  0.60846013    -0.90100
H440        H  0.45715004  0.29328755  0.60648824     0.17600
H441        H  0.33068518  0.21538019  0.62522783     0.17600
N442        N  0.31519322  0.28990742  0.61018430    -0.89200
H443        H  0.47671538  0.20098568  0.57890843     0.34900
H444        H  0.47243254  0.19430480  0.63370776     0.40000
H445        H  0.31417431  0.30871744  0.58290456     0.39700
H446        H  0.30694225  0.30552004  0.63814826     0.34500
C447        C  0.36816770  0.09483054  0.77636777    -0.27200
C448        C  0.39918994  0.11718585  0.79580890    -0.15300
C449        C  0.43076888  0.13397747  0.77056881     0.35400
C450        C  0.42958110  0.12941321  0.72541910    -0.26600
C451        C  0.39713561  0.10904486  0.70594597    -0.15900
C452        C  0.36622397  0.09140389  0.73126886     0.36500
N453        N  0.33267486  0.07103826  0.71100907    -0.90100
H454        H  0.34559929  0.07991714  0.79640130     0.17600
H455        H  0.45300318  0.14302119  0.70523855     0.17600
N456        N  0.46353440  0.15555676  0.79084201    -0.89200
H457        H  0.31255675  0.05969661  0.73445808     0.34900
H458        H  0.34441402  0.04616532  0.69408147     0.40000
H459        H  0.45112555  0.18139037  0.80543080     0.39700
H460        H  0.48445738  0.16559358  0.76746679     0.34500
C461        C  0.36130302  0.27996056  0.91645405    -0.27200
C462        C  0.39495010  0.30147631  0.90091615    -0.15300
C463        C  0.43107031  0.28063756  0.88907293     0.35400
C464        C  0.43106666  0.23835468  0.88987206    -0.26600
C465        C  0.39615044  0.21679583  0.90193921    -0.15900
C466        C  0.36111381  0.23766500  0.91614069     0.36500
N467        N  0.32576749  0.21582813  0.93055881    -0.90100
H468        H  0.33540519  0.29632779  0.92952952     0.17600
H469        H  0.45789979  0.22208735  0.87937760     0.17600
N470        N  0.46799355  0.30098378  0.87630623    -0.89200
H471        H  0.30221484  0.23577243  0.93899151     0.34900
H472        H  0.33382652  0.20069040  0.95899034     0.40000
H473        H  0.46419068  0.33219756  0.87441187     0.39700
H474        H  0.47591163  0.29123485  0.84506377     0.34500
C475        C  0.23036083  0.14597919  0.59495915    -0.27200
C476        C  0.21033787  0.10962651  0.60332401    -0.15300
C477        C  0.23331054  0.07366168  0.60979118     0.35400
C478        C  0.27580448  0.07636853  0.61111527    -0.26600
C479        C  0.29550742  0.11318523  0.60342700    -0.15900
C480        C  0.27265334  0.14726693  0.59144987     0.36500
N481        N  0.29212507  0.18201939  0.57302039    -0.90100
H482        H  0.21291700  0.17317841  0.58913609     0.17600
H483        H  0.29363919  0.04944725  0.61774171     0.17600
N484        N  0.21537823  0.03426097  0.61499449    -0.89200
H485        H  0.27066934  0.20401344  0.56450484     0.34900
H486        H  0.30679863  0.17311566  0.54437240     0.40000
H487        H  0.18362162  0.03511625  0.61520234     0.39700
H488        H  0.22405836  0.02299930  0.64520007     0.34500
C489        C  0.09001103  0.22887723  0.62810651    -0.27200
C490        C  0.11243588  0.20810570  0.59634916    -0.15300
C491        C  0.13077380  0.22928562  0.56172778     0.35400
C492        C  0.13098813  0.27159728  0.56291365    -0.26600
C493        C  0.11070063  0.29221600  0.59634256    -0.15900
C494        C  0.08764452  0.27103478  0.62736721     0.36700
N495        N  0.06121137  0.29238543  0.65699023    -0.90100
H496        H  0.07324635  0.21216140  0.65245090     0.17600
H497        H  0.14652087  0.28853878  0.53768477     0.17600
N498        N  0.14754649  0.20795292  0.52498747    -0.89200
H499        H  0.04607482  0.27218355  0.67753621     0.34900
H500        H  0.03878777  0.30691130  0.63868592     0.40000
H501        H  0.17176127  0.18998914  0.53553339     0.39700
H502        H  0.15975955  0.22826705  0.00260114     0.34500
C503        C  0.22981062  0.38641318  0.56539648    -0.27200
C504        C  0.20824101  0.39062495  0.60454394    -0.15300
C505        C  0.22923580  0.39598363  0.64385342     0.35400
C506        C  0.27189537  0.39627622  0.64333235    -0.26600
C507        C  0.29340977  0.39204100  0.60423030    -0.15900
C508        C  0.27231992  0.38672654  0.56492808     0.36500
N509        N  0.29391704  0.38019479  0.52486282    -0.90100
H510        H  0.21357556  0.38192634  0.53522924     0.17600
H511        H  0.28841577  0.40060835  0.67333285     0.17600
N512        N  0.20716624  0.40189548  0.68384514    -0.89200
H513        H  0.28519172  0.40272646  0.50301094     0.34900
H514        H  0.28494075  0.35231738  0.51211897     0.40000
H515        H  0.19112648  0.42917780  0.68132103     0.39700
H516        H  0.22727437  0.40522564  0.70976498     0.34500
C517        C  0.09541774  0.41757228  0.77340934    -0.27200
C518        C  0.09989923  0.38025398  0.79436360    -0.15300
C519        C  0.10508210  0.34487704  0.76953400     0.35400
C520        C  0.10832546  0.34777950  0.72454735    -0.26600
C521        C  0.10398697  0.38501112  0.70341035    -0.15900
C522        C  0.09732579  0.42025264  0.72822102     0.36500
N523        N  0.09517248  0.45914458  0.70816826    -0.90100
H524        H  0.09210535  0.44514813  0.79215921     0.17600
H525        H  0.11408660  0.32043513  0.70633317     0.17600
N526        N  0.10605927  0.30582094  0.78956888    -0.89200
H527        H  0.11821216  0.47676448  0.72161840     0.34900
H528        H  0.06718136  0.47232354  0.71661797     0.40000
H529        H  0.13359204  0.29175322  0.78106642     0.39700
H530        H  0.08234833  0.28856851  0.77673339     0.34500
C531        C  0.22576511  0.35649769  0.87862773    -0.27200
C532        C  0.20257662  0.38974100  0.89195782    -0.15300
C533        C  0.22317424  0.42595650  0.90301626     0.35400
C534        C  0.26608330  0.42632507  0.90349915    -0.26600
C535        C  0.28918764  0.39171347  0.89264959    -0.15900
C536        C  0.26803153  0.35647155  0.87995344     0.36500
N537        N  0.28842200  0.31947190  0.86943888    -0.90100
H538        H  0.21170233  0.32891561  0.86809837     0.17600
H539        H  0.28138007  0.45429248  0.91135325     0.17600
N540        N  0.20098032  0.46264498  0.91199126    -0.89200
H541        H  0.28137086  0.31194661  0.83736071     0.34900
H542        H  0.27656148  0.29671940  0.88933267     0.40000
H543        H  0.18585168  0.47101260  0.88360258     0.39700
H544        H  0.22072454  0.48630149  0.91968712     0.34500
C545        C  0.09196037  0.14252984  0.72539257    -0.27200
C546        C  0.10893218  0.11041557  0.70184981    -0.15300
C547        C  0.12733910  0.07786536  0.72373024     0.35400
C548        C  0.12725618  0.07724306  0.76888650    -0.26600
C549        C  0.11144448  0.10998748  0.79239596    -0.15900
C550        C  0.09350185  0.14283011  0.77055014     0.36500
N551        N  0.07587664  0.17627562  0.79345991    -0.90100
H552        H  0.07795309  0.16764580  0.70870650     0.17600
H553        H  0.14122574  0.05202378  0.78566618     0.17600
N554        N  0.14910212  0.04692555  0.70084091    -0.89200
H555        H  0.09873985  0.19041588  0.81138524     0.34900
H556        H  0.05394766  0.16488407  0.81480010     0.40000
H557        H  0.17307852  0.06099826  0.68437926     0.39700
H558        H  0.12972484  0.03388118  0.67807629     0.34500
C559        C  0.28080205  0.11567311  0.85795884    -0.27200
C560        C  0.30024306  0.11591817  0.89822605    -0.15300
C561        C  0.27632064  0.11259410  0.93662155     0.35400
C562        C  0.23392128  0.11022463  0.93343512    -0.26600
C563        C  0.21466303  0.10936525  0.89288182    -0.15900
C564        C  0.23879649  0.11094902  0.85471761     0.36500
N565        N  0.22234094  0.10482618  0.81228793    -0.90100
H566        H  0.29837578  0.11824374  0.82836082     0.17600
H567        H  0.21584586  0.10897366  0.96300692     0.17600
N568        N  0.29356545  0.11294970  0.97924580    -0.89200
H569        H  0.20357216  0.12894230  0.80385456     0.34900
H570        H  0.20561671  0.07801568  0.81242553     0.40000
H571        H  0.31562953  0.13555767  0.98104213     0.39700
H572        H  0.30700516  0.08497980  0.48540631     0.34500
C573        C  0.14785179  0.22359366  0.91046935    -0.27200
C574        C  0.11239415  0.20133295  0.90371274    -0.15300
C575        C  0.07455177  0.22112419  0.90056915     0.35400
C576        C  0.07322378  0.26338766  0.90027170    -0.26600
C577        C  0.10909253  0.28584197  0.90480149    -0.15900
C578        C  0.14615594  0.26579501  0.91313423     0.36500
N579        N  0.18135595  0.28821675  0.92613316    -0.90100
H580        H  0.17660947  0.20792729  0.91491722     0.17600
H581        H  0.04438100  0.27866800  0.89558674     0.17600
N582        N  0.03778935  0.19838105  0.89600999    -0.89200
H583        H  0.20600561  0.26886281  0.93175013     0.34900
H584        H  0.17445143  0.30223699  0.95575618     0.40000
H585        H  0.02405739  0.20719156  0.86703042     0.39700
H586        H  0.01832581  0.20604471  0.92176665     0.34500
O587        O  0.46600333  0.93493439  0.44552925    -0.81000
O588        O  0.03708832  0.56821156  0.44351647    -0.81000
O589        O  0.43207497  0.53859339  0.44612408    -0.81000
O590        O  0.07084113  0.96384916  0.44543055    -0.81000
O591        O  0.46646892  0.59193351  0.46696024    -0.81100
O592        O  0.03650279  0.91073825  0.46735392    -0.81000
O593        O  0.09210541  0.53564257  0.46414457    -0.81000
O594        O  0.41068458  0.96699704  0.46715780    -0.81000
C595        C  0.42776022  0.94095381  0.44374659     1.08700
C596        C  0.07520356  0.56148662  0.44058146     1.08600
C597        C  0.43963251  0.57623378  0.44384243     1.08700
C598        C  0.06323937  0.92621617  0.44367300     1.08600
O599        O  0.03164628  0.92423979  0.04884848    -0.81000
O600        O  0.47243711  0.57992073  0.04854173    -0.81100
O601        O  0.42362721  0.97111704  0.04823043    -0.81000
O602        O  0.08008542  0.53154379  0.04743179    -0.81000
O603        O  0.04797425  0.58702099  0.02739687    -0.81100
O604        O  0.45591570  0.91522769  0.02880851    -0.81000
O605        O  0.08799375  0.95615822  0.02989728    -0.81000
O606        O  0.41608735  0.54746112  0.03152995    -0.81000
Co607      Co  0.99825386  0.94323398  0.99901428     1.51500
Co608      Co  0.50521389  0.55977446  0.49801400     1.51700
Co609      Co  0.44271539  0.00546574  0.49904298     1.51600
Co610      Co  0.06068845  0.49777834  0.99801919     1.51500
O611        O  0.00169003  0.00156352  0.50545468    -1.42900
C612        C  0.06984838  0.92999876  0.05225723     1.08600
C613        C  0.43433323  0.57395366  0.05321371     1.08700
C614        C  0.42977076  0.93316671  0.05148953     1.08600
C615        C  0.07391943  0.56945910  0.05037812     1.08600
C616        C  0.10087750  0.58731906  0.41265324     0.85600
C617        C  0.14738637  0.58121657  0.41668367    -0.54600
C618        C  0.16959988  0.60730955  0.39163114     0.08500
C619        C  0.14312488  0.63675032  0.36544064     0.19500
C620        C  0.09369901  0.63164008  0.42404587    -0.55300
C621        C  0.11560143  0.65740253  0.39918623     0.08600
C622        C  0.09209226  0.58327427  0.36434331    -0.54900
C623        C  0.11425703  0.60935689  0.33967447     0.09200
H624        H  0.16151210  0.55899172  0.43776921     0.13700
H625        H  0.16027190  0.65893051  0.34563599    -0.00500
H626        H  0.07313017  0.64184356  0.44966793     0.14000
H627        H  0.07055429  0.56186122  0.35082592     0.13800
C628        C  0.08768653  0.89920423  0.41582006     0.85600
C629        C  0.08310539  0.85384134  0.42555631    -0.54600
C630        C  0.10756258  0.83017576  0.40038387     0.08500
C631        C  0.13312893  0.85399746  0.36711162     0.19500
C632        C  0.13304801  0.90753158  0.42078599    -0.55300
C633        C  0.15737990  0.88517519  0.39400460     0.08600
C634        C  0.07830970  0.90366420  0.36777165    -0.54900
C635        C  0.10190124  0.87945647  0.34205249     0.09200
H636        H  0.06325493  0.84145659  0.45056132     0.13700
H637        H  0.15179372  0.83465591  0.34558172    -0.00500
H638        H  0.14435857  0.92854732  0.44483533     0.14000
H639        H  0.05499316  0.92389109  0.35533854     0.13800
C640        C  0.09479897  0.90466779  0.08121688     0.85600
C641        C  0.14092997  0.91269640  0.07750636    -0.54600
C642        C  0.16361004  0.88878007  0.10372816     0.08500
C643        C  0.13859778  0.85918485  0.13097722     0.19500
C644        C  0.09002654  0.85977748  0.07155813    -0.55300
C645        C  0.11274153  0.83612359  0.09793967     0.08600
C646        C  0.08450981  0.90972257  0.12939677    -0.54900
C647        C  0.10795075  0.88604643  0.15571043     0.09200
H648        H  0.15473680  0.93498625  0.05615078     0.13700
H649        H  0.15770691  0.83929869  0.15159037    -0.00500
H650        H  0.06997616  0.84767102  0.04681532     0.14000
H651        H  0.06040697  0.92951680  0.14120773     0.13800
C652        C  0.09781183  0.59497054  0.07989248     0.85600
C653        C  0.09176475  0.64053180  0.07196854    -0.54600
C654        C  0.11421010  0.66400250  0.09850255     0.08500
C655        C  0.14043519  0.64037044  0.13075291     0.19500
C656        C  0.14346359  0.58807321  0.07499383    -0.55300
C657        C  0.16576558  0.61095268  0.10262499     0.08600
C658        C  0.08791408  0.58860924  0.12804074    -0.54900
C659        C  0.11037505  0.61280510  0.15450504     0.09200
H660        H  0.07175948  0.65349061  0.04764208     0.13700
H661        H  0.15884188  0.65973405  0.15262276    -0.00500
H662        H  0.15700589  0.56718644  0.05170490     0.14000
H663        H  0.06583615  0.56685689  0.14008470     0.13800
C664        C  0.41502550  0.60308092  0.41615176     0.85600
C665        C  0.42095637  0.64877716  0.42421914    -0.54600
C666        C  0.39654807  0.67236023  0.39914771     0.08500
C667        C  0.36910874  0.64840453  0.36837502     0.19500
C668        C  0.36956925  0.59556776  0.42286608    -0.55300
C669        C  0.34519526  0.61959128  0.39840562     0.08600
C670        C  0.42290848  0.59710148  0.36795424    -0.54900
C671        C  0.39886435  0.62086761  0.34294563     0.09200
H672        H  0.44183252  0.66144561  0.44781788     0.13700
H673        H  0.34971867  0.66778999  0.34747780    -0.00500
H674        H  0.35817480  0.57154773  0.44339868     0.14000
H675        H  0.44473432  0.57551242  0.35468429     0.13800
C676        C  0.40945998  0.59836894  0.08380566     0.85600
C677        C  0.36340902  0.59232759  0.07763717    -0.54600
C678        C  0.34017076  0.61468280  0.10496117     0.08500
C679        C  0.36476195  0.64047737  0.13685778     0.19500
C680        C  0.41579603  0.64394725  0.07935304    -0.55300
C681        C  0.39350816  0.66625183  0.10846148     0.08600
C682        C  0.41745030  0.58856767  0.13145228    -0.54900
C683        C  0.39353156  0.61058441  0.15894426     0.09200
H684        H  0.34991529  0.57265304  0.05342538     0.13700
H685        H  0.34565581  0.65772214  0.16035912    -0.00500
H686        H  0.43490972  0.65689840  0.05423569     0.14000
H687        H  0.43991841  0.56672840  0.14245358     0.13800
C688        C  0.40610526  0.90870010  0.08212571     0.85600
C689        C  0.41296904  0.86248836  0.07865808    -0.54600
C690        C  0.39016097  0.84086213  0.10755383     0.08500
C691        C  0.36339405  0.86753093  0.13690597     0.19500
C692        C  0.36048153  0.91469786  0.07667104    -0.55300
C693        C  0.33798990  0.89274597  0.10520021     0.08600
C694        C  0.41553665  0.91917503  0.12899828    -0.54900
C695        C  0.39290741  0.89755848  0.15755846     0.09200
H696        H  0.43330101  0.84811017  0.05526768     0.13700
H697        H  0.34562568  0.85104267  0.16175791    -0.00500
H698        H  0.34718864  0.93439823  0.05233513     0.14000
H699        H  0.43914614  0.94025704  0.13856865     0.13800
C700        C  0.40278429  0.91523287  0.41575443     0.85600
C701        C  0.35604355  0.91927033  0.42036698    -0.54600
C702        C  0.33481427  0.89359943  0.39372825     0.08500
C703        C  0.36329167  0.86709495  0.36539652     0.19500
C704        C  0.41156218  0.87069124  0.42449513    -0.55300
C705        C  0.39116732  0.84549719  0.39782395     0.08600
C706        C  0.41192249  0.92233607  0.36803837    -0.54900
C707        C  0.39124836  0.89697275  0.34175167     0.09200
H708        H  0.34147123  0.93961892  0.44341752     0.13700
H709        H  0.34832977  0.84679950  0.34209308    -0.00500
H710        H  0.43212148  0.85990824  0.44951255     0.14000
H711        H  0.43313921  0.94497505  0.35606226     0.13800
C712        C  0.40449921  0.86344067  0.22630515    -0.27200
C713        C  0.39786143  0.89978194  0.20436559    -0.15300
C714        C  0.39146206  0.93600142  0.22764850     0.35400
C715        C  0.39058635  0.93476856  0.27279493    -0.26600
C716        C  0.39564880  0.89796822  0.29464093    -0.15900
C717        C  0.40339672  0.86223651  0.27134975     0.36500
N718        N  0.41030714  0.82473731  0.29326892    -0.90100
H719        H  0.40965508  0.83565213  0.20832404     0.17600
H720        H  0.38439852  0.96230443  0.29083898     0.17600
N721        N  0.38343380  0.97370413  0.20649095    -0.89200
H722        H  0.43873090  0.81361325  0.28330661     0.34900
H723        H  0.38812852  0.80419460  0.28319057     0.40000
H724        H  0.35885858  0.96993181  0.18548074     0.39700
H725        H  0.40912442  0.98207882  0.18843991     0.34500
C726        C  0.42913831  0.77604589  0.10821755    -0.27200
C727        C  0.39129390  0.79618870  0.11004726    -0.15300
C728        C  0.35532275  0.77309590  0.11408289     0.35400
C729        C  0.35817925  0.73149636  0.11784921    -0.26600
C730        C  0.39498564  0.71095966  0.11132577    -0.15900
C731        C  0.43142689  0.73374374  0.10820550     0.36500
N732        N  0.47108983  0.71536301  0.10845029    -0.90100
H733        H  0.45714780  0.79328574  0.10648580     0.17600
H734        H  0.33068381  0.71537755  0.12522923     0.17600
N735        N  0.31519018  0.78990525  0.11019918    -0.89200
H736        H  0.47670914  0.70099166  0.07891156     0.34900
H737        H  0.47243472  0.69429499  0.13370891     0.40000
H738        H  0.31416608  0.80872712  0.08290197     0.39700
H739        H  0.30694785  0.80550584  0.13814542     0.34500
C740        C  0.36816951  0.59482810  0.27636845    -0.27200
C741        C  0.39919072  0.61718553  0.29580863    -0.15300
C742        C  0.43076779  0.63397939  0.27056781     0.35400
C743        C  0.42957923  0.62941508  0.22541810    -0.26600
C744        C  0.39713474  0.60904439  0.20594594    -0.15900
C745        C  0.36622482  0.59140150  0.23126955     0.36500
N746        N  0.33267611  0.57103428  0.21101083    -0.90100
H747        H  0.34560247  0.57991341  0.29640261     0.17600
H748        H  0.45299990  0.64302457  0.20523692     0.17600
N749        N  0.46353259  0.65556073  0.29083986    -0.89200
H750        H  0.31256037  0.55969135  0.23445943     0.34900
H751        H  0.34441664  0.54616141  0.19408142     0.40000
H752        H  0.45112165  0.68139485  0.30543017     0.39700
H753        H  0.48445293  0.66559861  0.26746546     0.34500
C754        C  0.36130398  0.77996168  0.41645090    -0.27200
C755        C  0.39495176  0.80147760  0.40091521    -0.15300
C756        C  0.43107225  0.78063897  0.38907286     0.35400
C757        C  0.43106868  0.73835600  0.38987189    -0.26600
C758        C  0.39615200  0.71679706  0.40193728    -0.15900
C759        C  0.36111461  0.73766637  0.41613685     0.36500
N760        N  0.32576835  0.71582872  0.43055342    -0.90100
H761        H  0.33540564  0.79632873  0.42952576     0.17600
H762        H  0.45790212  0.72208871  0.37937860     0.17600
N763        N  0.46799577  0.80098475  0.37630649    -0.89200
H764        H  0.30221078  0.73577607  0.43898399     0.34900
H765        H  0.33382457  0.70069640  0.45898184     0.40000
H766        H  0.46419269  0.83220081  0.37441243     0.39700
H767        H  0.47591338  0.79123682  0.34506595     0.34500
C768        C  0.23035985  0.64597706  0.09495976    -0.27200
C769        C  0.21033636  0.60962432  0.10332319    -0.15300
C770        C  0.23330881  0.57365912  0.10978953     0.35400
C771        C  0.27580256  0.57636571  0.11111423    -0.26600
C772        C  0.29550589  0.61318240  0.10342671    -0.15900
C773        C  0.27265232  0.64726430  0.09144987     0.36500
N774        N  0.29212385  0.68201697  0.07302042    -0.90100
H775        H  0.21291734  0.67317644  0.08914001     0.17600
H776        H  0.29363708  0.54944410  0.11774054     0.17600
N777        N  0.21537499  0.53425873  0.11499118    -0.89200
H778        H  0.27066957  0.70400945  0.06450496     0.34900
H779        H  0.30679846  0.67311241  0.04437059     0.40000
H780        H  0.18362478  0.53511406  0.11520036     0.39700
H781        H  0.22405722  0.52299398  0.14520125     0.34500
C782        C  0.09000942  0.72887586  0.12810559    -0.27200
C783        C  0.11243518  0.70810303  0.09634984    -0.15300
C784        C  0.13077548  0.72928274  0.06172867     0.35400
C785        C  0.13098876  0.77159355  0.06291295    -0.26600
C786        C  0.11070037  0.79221373  0.09634045    -0.15900
C787        C  0.08764342  0.77103327  0.12736525     0.36700
N788        N  0.06120991  0.79238487  0.15698713    -0.90100
H789        H  0.07324383  0.71216053  0.15244968     0.17600
H790        H  0.14652281  0.78853430  0.03768358     0.17600
N791        N  0.14755168  0.70794454  0.02499372    -0.89200
H792        H  0.04607211  0.77218193  0.17753508     0.34900
H793        H  0.03878799  0.80690916  0.13868347     0.40000
H794        H  0.17174657  0.68999900  0.03553183     0.39700
H795        H  0.15976317  0.72827188  0.50259478     0.34500
C796        C  0.22980933  0.88641174  0.06539668    -0.27200
C797        C  0.20823962  0.89062323  0.10454410    -0.15300
C798        C  0.22923439  0.89598105  0.14385378     0.35400
C799        C  0.27189392  0.89627351  0.14333281    -0.26600
C800        C  0.29340846  0.89203897  0.10423075    -0.15900
C801        C  0.27231863  0.88672472  0.06492842     0.36500
N802        N  0.29391572  0.88019255  0.02486322    -0.90100
H803        H  0.21357431  0.88192529  0.03522936     0.17600
H804        H  0.28841422  0.90060518  0.17333349     0.17600
N805        N  0.20716448  0.90189235  0.18384533    -0.89200
H806        H  0.28519053  0.90272487  0.00301076     0.34900
H807        H  0.28493926  0.85231590  0.01211969     0.40000
H808        H  0.19112595  0.92917355  0.18132203     0.39700
H809        H  0.22727362  0.90522173  0.20976681     0.34500
C810        C  0.09541749  0.91757220  0.27340817    -0.27200
C811        C  0.09989945  0.88025436  0.29436318    -0.15300
C812        C  0.10508142  0.84487687  0.26953423     0.35400
C813        C  0.10832379  0.84777836  0.22454738    -0.26600
C814        C  0.10398523  0.88500959  0.20340963    -0.15900
C815        C  0.09732457  0.92025164  0.22821971     0.36500
N816        N  0.09517080  0.95914321  0.20816616    -0.90100
H817        H  0.09210549  0.94514840  0.29215751     0.17600
H818        H  0.11408415  0.82043360  0.20633358     0.17600
N819        N  0.10605844  0.80582119  0.28957003    -0.89200
H820        H  0.11821071  0.97676337  0.22161533     0.34900
H821        H  0.06717980  0.97232232  0.21661628     0.40000
H822        H  0.13359238  0.79175242  0.28106702     0.39700
H823        H  0.08234840  0.78856951  0.27673598     0.34500
C824        C  0.22576676  0.85649989  0.37862679    -0.27200
C825        C  0.20257844  0.88974321  0.39195693    -0.15300
C826        C  0.22317615  0.92595864  0.40301537     0.35400
C827        C  0.26608525  0.92632706  0.40349828    -0.26600
C828        C  0.28918947  0.89171541  0.39264848    -0.15900
C829        C  0.26803315  0.85647372  0.37995185     0.36500
N830        N  0.28842334  0.81947436  0.36943552    -0.90100
H831        H  0.21170387  0.82891781  0.36809756     0.17600
H832        H  0.28138211  0.95429436  0.41135252     0.17600
N833        N  0.20098242  0.96264722  0.41199049    -0.89200
H834        H  0.28137198  0.81195041  0.33735877     0.34900
H835        H  0.27656245  0.79672018  0.38932970     0.40000
H836        H  0.18585340  0.97101495  0.38360140     0.39700
H837        H  0.22072639  0.98630329  0.41968600     0.34500
C838        C  0.09196091  0.64252920  0.22539177    -0.27200
C839        C  0.10893168  0.61041427  0.20184924    -0.15300
C840        C  0.12733944  0.57786461  0.22372968     0.35400
C841        C  0.12725709  0.57724275  0.26888594    -0.26600
C842        C  0.11144599  0.60998760  0.29239524    -0.15900
C843        C  0.09350404  0.64283049  0.27054923     0.36500
N844        N  0.07588221  0.67627799  0.29345859    -0.90100
H845        H  0.07795379  0.66764518  0.20870556     0.17600
H846        H  0.14122698  0.55202367  0.28566572     0.17600
N847        N  0.14910306  0.54692522  0.20084031    -0.89200
H848        H  0.09874183  0.69041415  0.31137948     0.34900
H849        H  0.05394807  0.66488596  0.31480365     0.40000
H850        H  0.17307731  0.56099737  0.18437916     0.39700
H851        H  0.12972447  0.53387944  0.17807473     0.34500
C852        C  0.28080383  0.61567211  0.35795793    -0.27200
C853        C  0.30024460  0.61592028  0.39822522    -0.15300
C854        C  0.27632193  0.61260029  0.43662097     0.35400
C855        C  0.23392287  0.61022872  0.43343455    -0.26600
C856        C  0.21466474  0.60936626  0.39288119    -0.15900
C857        C  0.23879814  0.61094899  0.35471693     0.36500
N858        N  0.22234234  0.60482868  0.31228677    -0.90100
H859        H  0.29837783  0.61824086  0.32835994     0.17600
H860        H  0.21584725  0.60897993  0.46300648     0.17600
N861        N  0.29356744  0.61296505  0.47924489    -0.89200
H862        H  0.20358121  0.62893450  0.30385712     0.34900
H863        H  0.20561235  0.57800751  0.31242369     0.40000
H864        H  0.31562232  0.63556041  0.48103488     0.39700
H865        H  0.30700404  0.58497348  0.98540636     0.34500
C866        C  0.14785421  0.72359475  0.41046775    -0.27200
C867        C  0.11239645  0.70133428  0.40371085    -0.15300
C868        C  0.07455421  0.72112577  0.40056733     0.35400
C869        C  0.07322644  0.76338926  0.40027020    -0.26600
C870        C  0.10909522  0.78584339  0.40480060    -0.15900
C871        C  0.14615854  0.76579618  0.41313307     0.36500
N872        N  0.18135893  0.78821733  0.42613212    -0.90100
H873        H  0.17661173  0.70792818  0.41491560     0.17600
H874        H  0.04438371  0.77866976  0.39558529     0.17600
N875        N  0.03779162  0.69838285  0.39600861    -0.89200
H876        H  0.20600693  0.76886430  0.43174882     0.34900
H877        H  0.17445402  0.80223827  0.45575686     0.40000
H878        H  0.02405879  0.70719392  0.36702785     0.39700
H879        H  0.01832922  0.70604620  0.42176433     0.34500
O880        O  0.46600213  0.93493224  0.94552939    -0.81000
O881        O  0.03708672  0.56820978  0.94351646    -0.81000
O882        O  0.43207492  0.53859157  0.94612331    -0.81000
O883        O  0.07083966  0.96384750  0.94543045    -0.81000
O884        O  0.46646734  0.59193202  0.96696110    -0.81100
O885        O  0.03650166  0.91073642  0.96735392    -0.81000
O886        O  0.09210383  0.53564091  0.96414459    -0.81000
O887        O  0.41068330  0.96699486  0.96715784    -0.81000
C888        C  0.42775901  0.94095166  0.94374668     1.08700
C889        C  0.07520199  0.56148496  0.94058152     1.08600
C890        C  0.43963175  0.57623211  0.94384239     1.08700
C891        C  0.06323805  0.92621449  0.94367288     1.08600
O892        O  0.03164717  0.92424201  0.54884848    -0.81000
O893        O  0.47243827  0.57992298  0.54854091    -0.81100
O894        O  0.42362874  0.97111976  0.54823082    -0.81000
O895        O  0.08008701  0.53154514  0.54743211    -0.81000
O896        O  0.04797566  0.58702224  0.52739724    -0.81100
O897        O  0.45591678  0.91523034  0.52880849    -0.81000
O898        O  0.08799482  0.95616008  0.52989726    -0.81000
O899        O  0.41608860  0.54746253  0.53153047    -0.81000
Co900      Co  0.99825510  0.94323622  0.49901406     1.51500
Co901      Co  0.50521248  0.55977291  0.99801434     1.51700
Co902      Co  0.44271395  0.00546354  0.99904302     1.51600
Co903      Co  0.06069009  0.49777987  0.49801922     1.51500
O904        O  0.00168853  0.00156131  0.00545508    -1.42900
C905        C  0.06984930  0.93000076  0.55225722     1.08600
C906        C  0.43433446  0.57395574  0.55321338     1.08700
C907        C  0.42977209  0.93316942  0.55148979     1.08600
C908        C  0.07392088  0.56946043  0.55037858     1.08600
C909        C  0.10087608  0.58731770  0.91265378     0.85600
C910        C  0.14738493  0.58121494  0.91668429    -0.54600
C911        C  0.16959866  0.60730820  0.89163234     0.08500
C912        C  0.14312386  0.63674955  0.86544231     0.19500
C913        C  0.09369773  0.63163853  0.92404727    -0.55300
C914        C  0.11560032  0.65740132  0.89918820     0.08600
C915        C  0.09209098  0.58327378  0.86434372    -0.54900
C916        C  0.11425595  0.60935676  0.83967549     0.09200
H917        H  0.16151049  0.55898960  0.93776935     0.13700
H918        H  0.16027129  0.65892984  0.84563792    -0.00500
H919        H  0.07312879  0.64184163  0.94966941     0.14000
H920        H  0.07055303  0.56186100  0.85082581     0.13800
C921        C  0.08768523  0.89920265  0.91581987     0.85600
C922        C  0.08310395  0.85383986  0.92555613    -0.54600
C923        C  0.10756103  0.83017424  0.90038373     0.08500
C924        C  0.13312761  0.85399581  0.86711154     0.19500
C925        C  0.13304674  0.90752988  0.92078586    -0.55300
C926        C  0.15737865  0.88517342  0.89400451     0.08600
C927        C  0.07830844  0.90366261  0.86777146    -0.54900
C928        C  0.10190007  0.87945493  0.84205226     0.09200
H929        H  0.06325355  0.84145516  0.95056121     0.13700
H930        H  0.15179256  0.83465420  0.84558191    -0.00500
H931        H  0.14435725  0.92854552  0.94483532     0.14000
H932        H  0.05499193  0.92388956  0.85533841     0.13800
C933        C  0.09479979  0.90466962  0.58121674     0.85600
C934        C  0.14093080  0.91269795  0.57750587    -0.54600
C935        C  0.16361092  0.88878150  0.60372743     0.08500
C936        C  0.13859866  0.85918641  0.63097669     0.19500
C937        C  0.09002695  0.85977937  0.57155802    -0.55300
C938        C  0.11274188  0.83612534  0.59793947     0.08600
C939        C  0.08451093  0.90972439  0.62939669    -0.54900
C940        C  0.10795189  0.88604808  0.65571021     0.09200
H941        H  0.15473762  0.93498780  0.55615029     0.13700
H942        H  0.15770792  0.83930010  0.65158950    -0.00500
H943        H  0.06997625  0.84767305  0.54681542     0.14000
H944        H  0.06040796  0.92951843  0.64120769     0.13800
C945        C  0.09781311  0.59497206  0.57989316     0.85600
C946        C  0.09176530  0.64053323  0.57196926    -0.54600
C947        C  0.11421027  0.66400435  0.59850314     0.08500
C948        C  0.14043582  0.64037274  0.63075356     0.19500
C949        C  0.14346508  0.58807538  0.57499463    -0.55300
C950        C  0.16576680  0.61095529  0.60262571     0.08600
C951        C  0.08791549  0.58861070  0.62804144    -0.54900
C952        C  0.11037608  0.61280694  0.65450579     0.09200
H953        H  0.07175980  0.65349174  0.54764282     0.13700
H954        H  0.15884220  0.65973669  0.65262335    -0.00500
H955        H  0.15700769  0.56718867  0.55170590     0.14000
H956        H  0.06583786  0.56685803  0.64008540     0.13800
C957        C  0.41502468  0.60307915  0.91615183     0.85600
C958        C  0.42095511  0.64877536  0.92421971    -0.54600
C959        C  0.39654674  0.67235843  0.89914843     0.08500
C960        C  0.36910761  0.64840274  0.86837545     0.19500
C961        C  0.36956852  0.59556544  0.92286587    -0.55300
C962        C  0.34519429  0.61958904  0.89840575     0.08600
C963        C  0.42290790  0.59710018  0.86795433    -0.54900
C964        C  0.39886349  0.62086619  0.84294589     0.09200
H965        H  0.44183119  0.66144382  0.94781853     0.13700
H966        H  0.34971749  0.66778827  0.84747837    -0.00500
H967        H  0.35817438  0.57154498  0.94339801     0.14000
H968        H  0.44473410  0.57551153  0.85468428     0.13800
C969        C  0.40946147  0.59837136  0.58380538     0.85600
C970        C  0.36341040  0.59233065  0.57763677    -0.54600
C971        C  0.34017240  0.61468574  0.60496118     0.08500
C972        C  0.36476382  0.64047968  0.63685808     0.19500
C973        C  0.41579816  0.64394976  0.57935351    -0.55300
C974        C  0.39351021  0.66625414  0.60846209     0.08600
C975        C  0.41745157  0.58856944  0.63145191    -0.54900
C976        C  0.39353314  0.61058618  0.65894420     0.09200
H977        H  0.34991646  0.57265645  0.55342478     0.13700
H978        H  0.34565788  0.65772454  0.66035956    -0.00500
H979        H  0.43491300  0.65690173  0.55423696     0.14000
H980        H  0.43991924  0.56672961  0.64245295     0.13800
C981        C  0.40610640  0.90870266  0.58212566     0.85600
C982        C  0.41297045  0.86249096  0.57865758    -0.54600
C983        C  0.39016218  0.84086433  0.60755268     0.08500
C984        C  0.36339480  0.86753269  0.63690484     0.19500
C985        C  0.36048269  0.91470031  0.57667049    -0.55300
C986        C  0.33799085  0.89274800  0.60519911     0.08600
C987        C  0.41553716  0.91917722  0.62899854    -0.54900
C988        C  0.39290770  0.89756016  0.65755813     0.09200
H989        H  0.43330277  0.84811304  0.55526733     0.13700
H990        H  0.34562633  0.85104407  0.66175638    -0.00500
H991        H  0.34719000  0.93440104  0.55233480     0.14000
H992        H  0.43914627  0.94025939  0.63856952     0.13800
C993        C  0.40278311  0.91523087  0.91575441     0.85600
C994        C  0.35604238  0.91926831  0.92036705    -0.54600
C995        C  0.33481309  0.89359759  0.89372816     0.08500
C996        C  0.36329044  0.86709330  0.86539610     0.19500
C997        C  0.41156094  0.87068922  0.92449480    -0.55300
C998        C  0.39116597  0.84549535  0.89782353     0.08600
C999        C  0.41192127  0.92233445  0.86803843    -0.54900
C1000       C  0.39124710  0.89697140  0.84175150     0.09200
H1001       H  0.34147008  0.93961668  0.94341783     0.13700
H1002       H  0.34832855  0.84679795  0.84209247    -0.00500
H1003       H  0.43212020  0.85990608  0.94951218     0.14000
H1004       H  0.43313789  0.94497361  0.85606252     0.13800
C1005       C  0.40449959  0.86344157  0.72630441    -0.27200
C1006       C  0.39786103  0.89978301  0.70436542    -0.15300
C1007       C  0.39146028  0.93600192  0.72764893     0.35400
C1008       C  0.39058399  0.93476827  0.77279536    -0.26600
C1009       C  0.39564742  0.89796773  0.79464075    -0.15900
C1010       C  0.40339686  0.86223670  0.77134901     0.36500
N1011       N  0.41030904  0.82473756  0.79326766    -0.90100
H1012       H  0.40965656  0.83565347  0.70832284     0.17600
H1013       H  0.38439521  0.96230367  0.79083988     0.17600
N1014       N  0.38343149  0.97370479  0.70649195    -0.89200
H1015       H  0.43873200  0.81361526  0.78330543     0.34900
H1016       H  0.38813025  0.80419319  0.78318871     0.40000
H1017       H  0.35885588  0.96993218  0.68548108     0.39700
H1018       H  0.40912142  0.98207996  0.68844153     0.34500
C1019       C  0.42913989  0.77604809  0.60821774    -0.27200
C1020       C  0.39129534  0.79619085  0.61004567    -0.15300
C1021       C  0.35532417  0.77309802  0.61408076     0.35400
C1022       C  0.35818064  0.73149854  0.61784783    -0.26600
C1023       C  0.39498727  0.71096187  0.61132630    -0.15900
C1024       C  0.43142868  0.73374597  0.60820814     0.36500
N1025       N  0.47109113  0.71536467  0.60846116    -0.90100
H1026       H  0.45714944  0.79328801  0.60648692     0.17600
H1027       H  0.33068522  0.71537968  0.62522741     0.17600
N1028       N  0.31519161  0.78990721  0.61019600    -0.89200
H1029       H  0.47671590  0.70098460  0.57890838     0.34900
H1030       H  0.47243193  0.69430690  0.63370808     0.40000
H1031       H  0.31416803  0.80872952  0.58289729     0.39700
H1032       H  0.30694893  0.80550743  0.63814045     0.34500
C1033       C  0.36816858  0.59482899  0.77636766    -0.27200
C1034       C  0.39919040  0.61718473  0.79580893    -0.15300
C1035       C  0.43076888  0.63397740  0.77056895     0.35400
C1036       C  0.42958103  0.62941364  0.72541927    -0.26600
C1037       C  0.39713581  0.60904500  0.70594596    -0.15900
C1038       C  0.36622461  0.59140313  0.73126865     0.36500
N1039       N  0.33267536  0.57103751  0.71100908    -0.90100
H1040       H  0.34560061  0.57991496  0.79640110     0.17600
H1041       H  0.45300287  0.64302234  0.70523886     0.17600
N1042       N  0.46353360  0.65555730  0.79084280    -0.89200
H1043       H  0.31255902  0.55969547  0.73445667     0.34900
H1044       H  0.34441541  0.54616378  0.69407944     0.40000
H1045       H  0.45112500  0.68138889  0.80543063     0.39700
H1046       H  0.48445799  0.66559527  0.76746612     0.34500
C1047       C  0.36130322  0.77995996  0.91645268    -0.27200
C1048       C  0.39495029  0.80147586  0.90091497    -0.15300
C1049       C  0.43107061  0.78063712  0.88907187     0.35400
C1050       C  0.43106702  0.73835428  0.88987088    -0.26600
C1051       C  0.39615087  0.71679530  0.90193804    -0.15900
C1052       C  0.36111422  0.73766457  0.91613972     0.36500
N1053       N  0.32576895  0.71582704  0.93055942    -0.90100
H1054       H  0.33540526  0.79632712  0.92952819     0.17600
H1055       H  0.45790023  0.72208696  0.87937660     0.17600
N1056       N  0.46799387  0.80098358  0.87630558    -0.89200
H1057       H  0.30221287  0.73577373  0.93899185     0.34900
H1058       H  0.33382762  0.70069399  0.95898810     0.40000
H1059       H  0.46419118  0.83219607  0.87441120     0.39700
H1060       H  0.47591243  0.79123429  0.84506200     0.34500
C1061       C  0.23036146  0.64597989  0.59495914    -0.27200
C1062       C  0.21033794  0.60962739  0.60332400    -0.15300
C1063       C  0.23331041  0.57366250  0.60979162     0.35400
C1064       C  0.27580436  0.57636912  0.61111614    -0.26600
C1065       C  0.29550768  0.61318550  0.60342725    -0.15900
C1066       C  0.27265378  0.64726713  0.59144918     0.36500
N1067       N  0.29212663  0.68201826  0.57301806    -0.90100
H1068       H  0.21291872  0.67317928  0.58913769     0.17600
H1069       H  0.29363890  0.54944787  0.61774310     0.17600
N1070       N  0.21537796  0.53426186  0.61499500    -0.89200
H1071       H  0.27066758  0.70401588  0.56450072     0.34900
H1072       H  0.30679721  0.67311514  0.54437519     0.40000
H1073       H  0.18362160  0.53511714  0.61520258     0.39700
H1074       H  0.22405796  0.52300020  0.64520088     0.34500
C1075       C  0.09000954  0.72887778  0.62810615    -0.27200
C1076       C  0.11243476  0.70810496  0.59634997    -0.15300
C1077       C  0.13077409  0.72928442  0.56172825     0.35400
C1078       C  0.13098767  0.77159537  0.56291246    -0.26600
C1079       C  0.11070013  0.79221554  0.59634048    -0.15900
C1080       C  0.08764362  0.77103525  0.62736574     0.36700
N1081       N  0.06121074  0.79238692  0.65698820    -0.90100
H1082       H  0.07324443  0.71216255  0.65245069     0.17600
H1083       H  0.14652120  0.78853603  0.53768281     0.17600
N1084       N  0.14754920  0.70794689  0.52499234    -0.89200
H1085       H  0.04607346  0.77218460  0.67753585     0.34900
H1086       H  0.03878814  0.80691180  0.63868452     0.40000
H1087       H  0.17174785  0.68999813  0.53553177     0.39700
H1088       H  0.15976736  0.72827256  0.00259305     0.34500
C1089       C  0.22981017  0.88641429  0.56539559    -0.27200
C1090       C  0.20824056  0.89062476  0.60454322    -0.15300
C1091       C  0.22923541  0.89598218  0.64385288     0.35400
C1092       C  0.27189495  0.89627493  0.64333176    -0.26600
C1093       C  0.29340940  0.89204120  0.60422956    -0.15900
C1094       C  0.27231949  0.88672783  0.56492715     0.36500
N1095       N  0.29391651  0.88019742  0.52486157    -0.90100
H1096       H  0.21357510  0.88192838  0.53522821     0.17600
H1097       H  0.28841530  0.90060618  0.67333246     0.17600
N1098       N  0.20716573  0.90189279  0.68384471    -0.89200
H1099       H  0.28519107  0.90272944  0.50301074     0.34900
H1100       H  0.28494023  0.85231999  0.51211666     0.40000
H1101       H  0.19112656  0.92917448  0.68132178     0.39700
H1102       H  0.22727448  0.90522202  0.70976550     0.34500
C1103       C  0.09541566  0.91757142  0.77340846    -0.27200
C1104       C  0.09989883  0.88025340  0.79436288    -0.15300
C1105       C  0.10508275  0.84487656  0.76953328     0.35400
C1106       C  0.10832563  0.84777897  0.72454655    -0.26600
C1107       C  0.10398596  0.88501040  0.70340941    -0.15900
C1108       C  0.09732342  0.92025175  0.72822010     0.36500
N1109       N  0.09516832  0.95914362  0.70816739    -0.90100
H1110       H  0.09210229  0.94514722  0.79215821     0.17600
H1111       H  0.11408731  0.82043467  0.70633241     0.17600
N1112       N  0.10606155  0.80582052  0.78956820    -0.89200
H1113       H  0.11820672  0.97676447  0.72161750     0.34900
H1114       H  0.06717614  0.97232136  0.71661713     0.40000
H1115       H  0.13359432  0.79175394  0.78106554     0.39700
H1116       H  0.08235073  0.78856700  0.77673284     0.34500
C1117       C  0.22576569  0.85649803  0.87862652    -0.27200
C1118       C  0.20257723  0.88974130  0.89195684    -0.15300
C1119       C  0.22317498  0.92595667  0.90301563     0.35400
C1120       C  0.26608402  0.92632508  0.90349862    -0.26600
C1121       C  0.28918830  0.89171354  0.89264865    -0.15900
C1122       C  0.26803210  0.85647181  0.87995209     0.36500
N1123       N  0.28842248  0.81947231  0.86943670    -0.90100
H1124       H  0.21170290  0.82891603  0.86809697     0.17600
H1125       H  0.28138084  0.95429241  0.91135304     0.17600
N1126       N  0.20098103  0.96264508  0.91199080    -0.89200
H1127       H  0.28137134  0.81194767  0.83735989     0.34900
H1128       H  0.27656167  0.79671860  0.88933123     0.40000
H1129       H  0.18585306  0.97101281  0.88360295     0.39700
H1130       H  0.22072592  0.98630217  0.91968738     0.34500
C1131       C  0.09196193  0.64253094  0.72539282    -0.27200
C1132       C  0.10893258  0.61041605  0.70185008    -0.15300
C1133       C  0.12733944  0.57786584  0.72373045     0.35400
C1134       C  0.12725637  0.57724339  0.76888668    -0.26600
C1135       C  0.11144537  0.60998812  0.79239621    -0.15900
C1136       C  0.09350409  0.64283150  0.77055038     0.36500
N1137       N  0.07588154  0.67627846  0.79346005    -0.90100
H1138       H  0.07795541  0.66764732  0.70870673     0.17600
H1139       H  0.14122559  0.55202387  0.78566631     0.17600
N1140       N  0.14910309  0.54692650  0.70084109    -0.89200
H1141       H  0.09874314  0.69041587  0.81138304     0.34900
H1142       H  0.05394943  0.66488721  0.81480288     0.40000
H1143       H  0.17307818  0.56099902  0.68438029     0.39700
H1144       H  0.12972519  0.53388130  0.67807544     0.34500
C1145       C  0.28080245  0.61567075  0.85795854    -0.27200
C1146       C  0.30024358  0.61591790  0.89822565    -0.15300
C1147       C  0.27632120  0.61259666  0.93662150     0.35400
C1148       C  0.23392205  0.61022551  0.93343538    -0.26600
C1149       C  0.21466358  0.60936430  0.89288219    -0.15900
C1150       C  0.23879678  0.61094733  0.85471778     0.36500
N1151       N  0.22234080  0.60482600  0.81228794    -0.90100
H1152       H  0.29837616  0.61824022  0.82836044     0.17600
H1153       H  0.21584666  0.60897598  0.96300740     0.17600
N1154       N  0.29356689  0.61295967  0.97924534    -0.89200
H1155       H  0.20357634  0.62893609  0.80385696     0.34900
H1156       H  0.20561328  0.57800926  0.81242528     0.40000
H1157       H  0.31562241  0.63555637  0.98103663     0.39700
H1158       H  0.30700501  0.58497808  0.48540726     0.34500
C1159       C  0.14785288  0.72359369  0.91046904    -0.27200
C1160       C  0.11239510  0.70133299  0.90371320    -0.15300
C1161       C  0.07455267  0.72112431  0.90057026     0.35400
C1162       C  0.07322486  0.76338776  0.90027184    -0.26600
C1163       C  0.10909371  0.78584204  0.90480100    -0.15900
C1164       C  0.14615715  0.76579506  0.91313359     0.36500
N1165       N  0.18135730  0.78821680  0.92613207    -0.90100
H1166       H  0.17661058  0.70792730  0.91491664     0.17600
H1167       H  0.04438202  0.77866814  0.89558719     0.17600
N1168       N  0.03778992  0.69838126  0.89601353    -0.89200
H1169       H  0.20600700  0.76886282  0.93174894     0.34900
H1170       H  0.17445304  0.80223715  0.95575506     0.40000
H1171       H  0.02405598  0.70719143  0.86703018     0.39700
H1172       H  0.01832903  0.70604549  0.92176698     0.34500
O1173       O  0.96600336  0.43493340  0.44553021    -0.81000
O1174       O  0.53708880  0.06821186  0.44351629    -0.81000
O1175       O  0.93207629  0.03859346  0.44612332    -0.81000
O1176       O  0.57084107  0.46384878  0.44543086    -0.81000
O1177       O  0.96646927  0.09193387  0.46696035    -0.81100
O1178       O  0.53650298  0.41073782  0.46735455    -0.81000
O1179       O  0.59210575  0.03564267  0.46414438    -0.81000
O1180       O  0.91068457  0.46699627  0.46715838    -0.81000
C1181       C  0.92776028  0.44095293  0.44374736     1.08700
C1182       C  0.57520402  0.06148675  0.44058124     1.08600
C1183       C  0.93963344  0.07623392  0.44384198     1.08700
C1184       C  0.56323937  0.42621576  0.44367339     1.08600
O1185       O  0.53164584  0.42424011  0.04884834    -0.81000
O1186       O  0.97243688  0.07992091  0.04854090    -0.81100
O1187       O  0.92362695  0.47111771  0.04823084    -0.81000
O1188       O  0.58008551  0.03154363  0.04743178    -0.81000
O1189       O  0.54797420  0.08702066  0.02739662    -0.81100
O1190       O  0.95591511  0.41522829  0.02880871    -0.81000
O1191       O  0.58799341  0.45615847  0.02989728    -0.81000
O1192       O  0.91608728  0.04746051  0.03153019    -0.81000
Co1193     Co  0.49825335  0.44323452  0.99901431     1.51500
Co1194     Co  0.00521414  0.05977474  0.49801396     1.51700
Co1195     Co  0.94271517  0.50546524  0.49904342     1.51600
Co1196     Co  0.56068872  0.99777817  0.99801910     1.51500
O1197       O  0.50168989  0.50156324  0.50545469    -1.42900
C1198       C  0.56984795  0.42999905  0.05225717     1.08600
C1199       C  0.93433306  0.07395368  0.05321319     1.08700
C1200       C  0.92977030  0.43316736  0.05148987     1.08600
C1201       C  0.57391942  0.06945894  0.05037796     1.08600
C1202       C  0.60087818  0.08731902  0.41265298     0.85600
C1203       C  0.64738699  0.08121636  0.41668368    -0.54600
C1204       C  0.66960069  0.10730919  0.39163120     0.08500
C1205       C  0.64312601  0.13675003  0.36544045     0.19500
C1206       C  0.59369984  0.13164007  0.42404548    -0.55300
C1207       C  0.61560246  0.15740243  0.39918590     0.08600
C1208       C  0.59209315  0.08327420  0.36434298    -0.54900
C1209       C  0.61425813  0.10935670  0.33967417     0.09200
H1210       H  0.66151256  0.05899152  0.43776934     0.13700
H1211       H  0.66027359  0.15892986  0.34563555    -0.00500
H1212       H  0.57313092  0.14184364  0.44966743     0.14000
H1213       H  0.57055508  0.06186127  0.35082553     0.13800
C1214       C  0.58768645  0.39920388  0.41582025     0.85600
C1215       C  0.58310551  0.35384098  0.42555651    -0.54600
C1216       C  0.60756266  0.33017553  0.40038390     0.08500
C1217       C  0.63312883  0.35399731  0.36711157     0.19500
C1218       C  0.63304793  0.40753136  0.42078595    -0.55300
C1219       C  0.65737982  0.38517505  0.39400447     0.08600
C1220       C  0.57830936  0.40366377  0.36777188    -0.54900
C1221       C  0.60190089  0.37945613  0.34205255     0.09200
H1222       H  0.56325520  0.34145615  0.45056160     0.13700
H1223       H  0.65179368  0.33465585  0.34558166    -0.00500
H1224       H  0.64435848  0.42854702  0.44483538     0.14000
H1225       H  0.55499257  0.42389046  0.35533895     0.13800
C1226       C  0.59479842  0.40466809  0.08121688     0.85600
C1227       C  0.64092945  0.41269670  0.07750669    -0.54600
C1228       C  0.66360939  0.38878027  0.10372852     0.08500
C1229       C  0.63859691  0.35918501  0.13097737     0.19500
C1230       C  0.59002601  0.35977786  0.07155795    -0.55300
C1231       C  0.61274067  0.33612396  0.09793978     0.08600
C1232       C  0.58450892  0.40972267  0.12939670    -0.54900
C1233       C  0.60794969  0.38604643  0.15571045     0.09200
H1234       H  0.65473639  0.43498659  0.05615124     0.13700
H1235       H  0.65770591  0.33929872  0.15159049    -0.00500
H1236       H  0.56997581  0.34767147  0.04681493     0.14000
H1237       H  0.56040587  0.42951672  0.14120751     0.13800
C1238       C  0.59781180  0.09497064  0.07989210     0.85600
C1239       C  0.59176471  0.14053182  0.07196748    -0.54600
C1240       C  0.61421019  0.16400297  0.09850084     0.08500
C1241       C  0.64043505  0.14037118  0.13075194     0.19500
C1242       C  0.64346360  0.08807321  0.07499366    -0.55300
C1243       C  0.66576553  0.11095293  0.10262460     0.08600
C1244       C  0.58791404  0.08860984  0.12804043    -0.54900
C1245       C  0.61037497  0.11280596  0.15450450     0.09200
H1246       H  0.57175926  0.15349032  0.04764101     0.13700
H1247       H  0.65884167  0.15973503  0.15262160    -0.00500
H1248       H  0.65700595  0.06718623  0.05170503     0.14000
H1249       H  0.56583631  0.06685738  0.14008463     0.13800
C1250       C  0.91502647  0.10308075  0.41615115     0.85600
C1251       C  0.92095724  0.14877706  0.42421794    -0.54600
C1252       C  0.89654865  0.17235973  0.39914639     0.08500
C1253       C  0.86910931  0.14840359  0.36837415     0.19500
C1254       C  0.86957033  0.09556747  0.42286585    -0.55300
C1255       C  0.84519604  0.11959066  0.39840540     0.08600
C1256       C  0.92290930  0.09710077  0.36795373    -0.54900
C1257       C  0.89886503  0.12086655  0.34294495     0.09200
H1258       H  0.94183345  0.16144582  0.44781643     0.13700
H1259       H  0.84971912  0.16778877  0.34747677    -0.00500
H1260       H  0.85817646  0.07154739  0.44339832     0.14000
H1261       H  0.94473524  0.07551170  0.35468397     0.13800
C1262       C  0.90945992  0.09836933  0.08380497     0.85600
C1263       C  0.86340889  0.09232842  0.07763641    -0.54600
C1264       C  0.84017076  0.11468380  0.10496049     0.08500
C1265       C  0.86476214  0.14047786  0.13685733     0.19500
C1266       C  0.91579635  0.14394770  0.07935266    -0.55300
C1267       C  0.89350847  0.16625226  0.10846116     0.08600
C1268       C  0.91745010  0.08856780  0.13145153    -0.54900
C1269       C  0.89353152  0.11058454  0.15894363     0.09200
H1270       H  0.84991507  0.07265400  0.05342457     0.13700
H1271       H  0.84565614  0.15772265  0.16035878    -0.00500
H1272       H  0.93491060  0.15689915  0.05423568     0.14000
H1273       H  0.93991805  0.06672832  0.14245273     0.13800
C1274       C  0.90610484  0.40870071  0.08212607     0.85600
C1275       C  0.91296871  0.36248901  0.07865813    -0.54600
C1276       C  0.89016086  0.34086257  0.10755382     0.08500
C1277       C  0.86339396  0.36753115  0.13690629     0.19500
C1278       C  0.86048105  0.41469844  0.07667169    -0.55300
C1279       C  0.83798955  0.39274630  0.10520081     0.08600
C1280       C  0.91553641  0.41917544  0.12899864    -0.54900
C1281       C  0.89290735  0.39755869  0.15755880     0.09200
H1282       H  0.93330059  0.34811095  0.05526755     0.13700
H1283       H  0.84562578  0.35104266  0.16175822    -0.00500
H1284       H  0.84718804  0.43439894  0.05233598     0.14000
H1285       H  0.93914586  0.44025751  0.13856904     0.13800
C1286       C  0.90278445  0.41523214  0.41575493     0.85600
C1287       C  0.85604369  0.41926952  0.42036743    -0.54600
C1288       C  0.83481444  0.39359888  0.39372841     0.08500
C1289       C  0.86329197  0.36709464  0.36539644     0.19500
C1290       C  0.91156245  0.37069044  0.42449514    -0.55300
C1291       C  0.89116780  0.34549662  0.39782357     0.08600
C1292       C  0.91192273  0.42233577  0.36803895    -0.54900
C1293       C  0.89124871  0.39697263  0.34175195     0.09200
H1294       H  0.84147133  0.43961792  0.44341815     0.13700
H1295       H  0.84833014  0.34679936  0.34209278    -0.00500
H1296       H  0.93212173  0.35990725  0.44951247     0.14000
H1297       H  0.93313952  0.44497481  0.35606311     0.13800
C1298       C  0.90449959  0.36344080  0.22630536    -0.27200
C1299       C  0.89786158  0.39978207  0.20436591    -0.15300
C1300       C  0.89146219  0.43600150  0.22764893     0.35400
C1301       C  0.89058694  0.43476860  0.27279536    -0.26600
C1302       C  0.89564949  0.39796824  0.29464125    -0.15900
C1303       C  0.90339743  0.36223660  0.27134996     0.36500
N1304       N  0.91030834  0.32473742  0.29326901    -0.90100
H1305       H  0.90965541  0.33565229  0.20832417     0.17600
H1306       H  0.88439913  0.46230443  0.29083950     0.17600
N1307       N  0.88343294  0.47370404  0.20649149    -0.89200
H1308       H  0.93873096  0.31361381  0.28330650     0.34900
H1309       H  0.88812887  0.30419401  0.28319068     0.40000
H1310       H  0.85885958  0.46993164  0.18548288     0.39700
H1311       H  0.90912536  0.48207980  0.18843900     0.34500
C1312       C  0.92913842  0.27604632  0.10821762    -0.27200
C1313       C  0.89129394  0.29618911  0.11004683    -0.15300
C1314       C  0.85532281  0.27309628  0.11408204     0.35400
C1315       C  0.85817931  0.23149675  0.11784839    -0.26600
C1316       C  0.89498577  0.21096006  0.11132550    -0.15900
C1317       C  0.93142708  0.23374417  0.10820623     0.36500
N1318       N  0.97108980  0.21536316  0.10845435    -0.90100
H1319       H  0.95714793  0.29328621  0.10648634     0.17600
H1320       H  0.83068390  0.21537791  0.12522839     0.17600
N1321       N  0.81519025  0.28990562  0.11019804    -0.89200
H1322       H  0.97671137  0.20098817  0.07890933     0.34900
H1323       H  0.97243296  0.19429947  0.13370768     0.40000
H1324       H  0.81416633  0.30872745  0.08290038     0.39700
H1325       H  0.80694794  0.30550636  0.13814376     0.34500
C1326       C  0.86817010  0.09482729  0.27636788    -0.27200
C1327       C  0.89919162  0.11718430  0.29580799    -0.15300
C1328       C  0.93076885  0.13397782  0.27056717     0.35400
C1329       C  0.92957988  0.12941405  0.22541740    -0.26600
C1330       C  0.89713484  0.10904414  0.20594532    -0.15900
C1331       C  0.86622499  0.09140128  0.23126891     0.36500
N1332       N  0.83267563  0.07103472  0.21101061    -0.90100
H1333       H  0.84560312  0.07991264  0.29640205     0.17600
H1334       H  0.95300063  0.14302336  0.20523622     0.17600
N1335       N  0.96353430  0.15555825  0.29083918    -0.89200
H1336       H  0.81256141  0.05969220  0.23445779     0.34900
H1337       H  0.84441650  0.04616048  0.19407946     0.40000
H1338       H  0.95112380  0.18139280  0.30543024     0.39700
H1339       H  0.98445431  0.16559589  0.26746512     0.34500
C1340       C  0.86130426  0.27996115  0.41644927    -0.27200
C1341       C  0.89495235  0.30147695  0.40091427    -0.15300
C1342       C  0.93107275  0.28063842  0.38907187     0.35400
C1343       C  0.93106915  0.23835531  0.38987080    -0.26600
C1344       C  0.89615224  0.21679655  0.40193566    -0.15900
C1345       C  0.86111467  0.23766576  0.41613456     0.36500
N1346       N  0.82576756  0.21582851  0.43054949    -0.90100
H1347       H  0.83540586  0.29632815  0.42952389     0.17600
H1348       H  0.95790262  0.22208806  0.37937780     0.17600
N1349       N  0.96799649  0.30098345  0.37630512    -0.89200
H1350       H  0.80221211  0.23577416  0.43897961     0.34900
H1351       H  0.83382370  0.20069338  0.45898022     0.40000
H1352       H  0.96419289  0.33220382  0.37441158     0.39700
H1353       H  0.97591285  0.29123714  0.34506827     0.34500
C1354       C  0.73035938  0.14597758  0.09495885    -0.27200
C1355       C  0.71033641  0.10962474  0.10332283    -0.15300
C1356       C  0.73330905  0.07365984  0.10978969     0.35400
C1357       C  0.77580293  0.07636676  0.11111425    -0.26600
C1358       C  0.79550583  0.11318355  0.10342634    -0.15900
C1359       C  0.77265197  0.14726526  0.09144947     0.36500
N1360       N  0.79212294  0.18201832  0.07302027    -0.90100
H1361       H  0.71291594  0.17317678  0.08913715     0.17600
H1362       H  0.79363760  0.04944539  0.11774067     0.17600
N1363       N  0.71537643  0.03425913  0.11499220    -0.89200
H1364       H  0.77067000  0.20400922  0.06450545     0.34900
H1365       H  0.80679875  0.17311319  0.04436814     0.40000
H1366       H  0.68362134  0.03511437  0.11520033     0.39700
H1367       H  0.72405701  0.02299649  0.14519877     0.34500
C1368       C  0.59000868  0.22887582  0.12810413    -0.27200
C1369       C  0.61243452  0.20810395  0.09634779    -0.15300
C1370       C  0.63077390  0.22928383  0.06172692     0.35400
C1371       C  0.63098789  0.27159521  0.06291238    -0.26600
C1372       C  0.61069947  0.29221431  0.09634046    -0.15900
C1373       C  0.58764243  0.27103331  0.12736458     0.36700
N1374       N  0.56120879  0.29238436  0.15698679    -0.90100
H1375       H  0.57324326  0.21216009  0.15244807     0.17600
H1376       H  0.64652155  0.28853654  0.03768375     0.17600
N1377       N  0.64754836  0.20794945  0.02498860    -0.89200
H1378       H  0.54607120  0.27218194  0.17753318     0.34900
H1379       H  0.53878633  0.30690977  0.13868247     0.40000
H1380       H  0.67175642  0.18999120  0.03553249     0.39700
H1381       H  0.65975687  0.22826717  0.50260359     0.34500
C1382       C  0.72980887  0.38641228  0.06539713    -0.27200
C1383       C  0.70823905  0.39062325  0.10454456    -0.15300
C1384       C  0.72923382  0.39598048  0.14385437     0.35400
C1385       C  0.77189337  0.39627296  0.14333347    -0.26600
C1386       C  0.79340802  0.39203906  0.10423138    -0.15900
C1387       C  0.77231820  0.38672528  0.06492895     0.36500
N1388       N  0.79391532  0.38019367  0.02486367    -0.90100
H1389       H  0.71357391  0.38192624  0.03522971     0.17600
H1390       H  0.78841362  0.40060423  0.17333426     0.17600
N1391       N  0.70716379  0.40189125  0.18384593    -0.89200
H1392       H  0.78519013  0.40272629  0.00301154     0.34900
H1393       H  0.78493890  0.35231719  0.01211970     0.40000
H1394       H  0.69112544  0.42917224  0.18132307     0.39700
H1395       H  0.72727309  0.40522026  0.20976777     0.34500
C1396       C  0.59541551  0.41757151  0.27340822    -0.27200
C1397       C  0.59989863  0.38025380  0.29436321    -0.15300
C1398       C  0.60508134  0.34487643  0.26953416     0.35400
C1399       C  0.60832289  0.34777799  0.22454724    -0.26600
C1400       C  0.60398374  0.38500922  0.20340961    -0.15900
C1401       C  0.59732254  0.42025108  0.22821979     0.36500
N1402       N  0.59516855  0.45914270  0.20816643    -0.90100
H1403       H  0.59210305  0.44514766  0.29215757     0.17600
H1404       H  0.61408349  0.32043332  0.20633333     0.17600
N1405       N  0.60606044  0.30582078  0.28956994    -0.89200
H1406       H  0.61820678  0.47676223  0.22161548     0.34900
H1407       H  0.56717580  0.47232194  0.21661662     0.40000
H1408       H  0.63359276  0.29175385  0.28106663     0.39700
H1409       H  0.58234899  0.28856716  0.27673580     0.34500
C1410       C  0.72576673  0.35649969  0.37862649    -0.27200
C1411       C  0.70257841  0.38974295  0.39195690    -0.15300
C1412       C  0.72317623  0.42595825  0.40301575     0.35400
C1413       C  0.76608531  0.42632654  0.40349880    -0.26600
C1414       C  0.78918956  0.39171500  0.39264852    -0.15900
C1415       C  0.76803315  0.35647351  0.37995139     0.36500
N1416       N  0.78842329  0.31947431  0.36943432    -0.90100
H1417       H  0.71170381  0.32891766  0.36809718     0.17600
H1418       H  0.78138219  0.45429376  0.41135345     0.17600
N1419       N  0.70098240  0.46264672  0.41199105    -0.89200
H1420       H  0.78137186  0.31195089  0.33735770     0.34900
H1421       H  0.77656239  0.29671969  0.38932830     0.40000
H1422       H  0.68585413  0.47101456  0.38360290     0.39700
H1423       H  0.72072709  0.48630346  0.41968738     0.34500
C1424       C  0.59196162  0.14252974  0.22539168    -0.27200
C1425       C  0.60893215  0.11041493  0.20184880    -0.15300
C1426       C  0.62733996  0.07786509  0.22372899     0.35400
C1427       C  0.62725788  0.07724296  0.26888527    -0.26600
C1428       C  0.61144695  0.10998768  0.29239489    -0.15900
C1429       C  0.59350494  0.14283072  0.27054915     0.36500
N1430       N  0.57588306  0.17627799  0.29345880    -0.90100
H1431       H  0.57795450  0.16764587  0.20870572     0.17600
H1432       H  0.64122775  0.05202374  0.28566478     0.17600
N1433       N  0.64910349  0.04692585  0.20083934    -0.89200
H1434       H  0.59874332  0.19041446  0.31138004     0.34900
H1435       H  0.55394963  0.16488603  0.31480343     0.40000
H1436       H  0.67307777  0.06099824  0.18437816     0.39700
H1437       H  0.62972494  0.03388023  0.17807384     0.34500
C1438       C  0.78080453  0.11567082  0.35795806    -0.27200
C1439       C  0.80024529  0.11591943  0.39822536    -0.15300
C1440       C  0.77632272  0.11259908  0.43662114     0.35400
C1441       C  0.73392348  0.11022852  0.43343473    -0.26600
C1442       C  0.71466547  0.10936564  0.39288137    -0.15900
C1443       C  0.73879894  0.11094697  0.35471712     0.36500
N1444       N  0.72234320  0.10482348  0.31228754    -0.90100
H1445       H  0.79837847  0.11823911  0.32835997     0.17600
H1446       H  0.71584784  0.10898000  0.46300657     0.17600
N1447       N  0.79356773  0.11296032  0.47924528    -0.89200
H1448       H  0.70357796  0.12893307  0.30385544     0.34900
H1449       H  0.70561630  0.07800670  0.31242617     0.40000
H1450       H  0.81562771  0.13556424  0.48103839     0.39700
H1451       H  0.80699994  0.08497372  0.98540288     0.34500
C1452       C  0.64785490  0.22359488  0.41046767    -0.27200
C1453       C  0.61239732  0.20133418  0.40371042    -0.15300
C1454       C  0.57455494  0.22112546  0.40056687     0.35400
C1455       C  0.57322692  0.26338891  0.40026978    -0.26600
C1456       C  0.60909550  0.28584325  0.40480053    -0.15900
C1457       C  0.64615891  0.26579626  0.41313325     0.36500
N1458       N  0.68135879  0.28821785  0.42613294    -0.90100
H1459       H  0.67661251  0.20792848  0.41491575     0.17600
H1460       H  0.54438413  0.27866927  0.39558475     0.17600
N1461       N  0.53779244  0.19838238  0.39600825    -0.89200
H1462       H  0.70600802  0.26886417  0.43174990     0.34900
H1463       H  0.67445378  0.30223789  0.45575653     0.40000
H1464       H  0.52405931  0.20719354  0.36702698     0.39700
H1465       H  0.51833034  0.20604555  0.42176349     0.34500
O1466       O  0.96600144  0.43493302  0.94552955    -0.81000
O1467       O  0.53708675  0.06820920  0.94351613    -0.81000
O1468       O  0.93207414  0.03859157  0.94612352    -0.81000
O1469       O  0.57083922  0.46384762  0.94543056    -0.81000
O1470       O  0.96646758  0.09193169  0.96696039    -0.81100
O1471       O  0.53650086  0.41073674  0.96735395    -0.81000
O1472       O  0.59210408  0.03564089  0.96414459    -0.81000
O1473       O  0.91068271  0.46699546  0.96715842    -0.81000
C1474       C  0.92775829  0.44095234  0.94374712     1.08700
C1475       C  0.57520207  0.06148471  0.94058136     1.08600
C1476       C  0.93963145  0.07623202  0.94384221     1.08700
C1477       C  0.56323742  0.42621466  0.94367304     1.08600
O1478       O  0.53164746  0.42424194  0.54884930    -0.81000
O1479       O  0.97243844  0.07992285  0.54854113    -0.81100
O1480       O  0.92362881  0.47111941  0.54823149    -0.81000
O1481       O  0.58008695  0.03154533  0.54743178    -0.81000
O1482       O  0.54797590  0.08702261  0.52739688    -0.81100
O1483       O  0.95591713  0.41523000  0.52880953    -0.81000
O1484       O  0.58799500  0.45615994  0.52989760    -0.81000
O1485       O  0.91608868  0.04746300  0.53152982    -0.81000
Co1486     Co  0.49825531  0.44323585  0.49901477     1.51500
Co1487     Co  0.00521243  0.05977248  0.99801393     1.51700
Co1488     Co  0.94271387  0.50546391  0.99904325     1.51600
Co1489     Co  0.56069012  0.99778014  0.49801886     1.51500
O1490       O  0.50168841  0.50156173  0.00545536    -1.42900
C1491       C  0.56984960  0.43000074  0.55225789     1.08600
C1492       C  0.93433454  0.07395580  0.55321327     1.08700
C1493       C  0.92977237  0.43316911  0.55149072     1.08600
C1494       C  0.57392097  0.06946064  0.55037824     1.08600
C1495       C  0.60087587  0.08731764  0.91265356     0.85600
C1496       C  0.64738480  0.08121533  0.91668374    -0.54600
C1497       C  0.66959815  0.10730890  0.89163167     0.08500
C1498       C  0.64312285  0.13674993  0.86544190     0.19500
C1499       C  0.59369714  0.13163840  0.92404712    -0.55300
C1500       C  0.61559936  0.15740137  0.89918795     0.08600
C1501       C  0.59209056  0.08327362  0.86434358    -0.54900
C1502       C  0.61425513  0.10935680  0.83967524     0.09200
H1503       H  0.66151064  0.05899008  0.93776869     0.13700
H1504       H  0.66026960  0.15893066  0.84563771    -0.00500
H1505       H  0.57312826  0.14184134  0.94966940     0.14000
H1506       H  0.57055283  0.06186054  0.85082580     0.13800
C1507       C  0.58768457  0.39920271  0.91582025     0.85600
C1508       C  0.58310282  0.35383991  0.92555627    -0.54600
C1509       C  0.60755993  0.33017420  0.90038402     0.08500
C1510       C  0.63312699  0.35399570  0.86711216     0.19500
C1511       C  0.63304610  0.40752957  0.92078672    -0.55300
C1512       C  0.65737804  0.38517308  0.89400545     0.08600
C1513       C  0.57830823  0.40366297  0.86777180    -0.54900
C1514       C  0.60189988  0.37945521  0.84205278     0.09200
H1515       H  0.56325215  0.34145528  0.95056116     0.13700
H1516       H  0.65179193  0.33465402  0.84558254    -0.00500
H1517       H  0.64435662  0.42854514  0.94483625     0.14000
H1518       H  0.55499210  0.42389025  0.85533855     0.13800
C1519       C  0.59480020  0.40466979  0.58121760     0.85600
C1520       C  0.64093123  0.41269789  0.57750631    -0.54600
C1521       C  0.66361141  0.38878167  0.60372807     0.08500
C1522       C  0.63859925  0.35918689  0.63097780     0.19500
C1523       C  0.59002714  0.35977943  0.57155953    -0.55300
C1524       C  0.61274203  0.33612561  0.59794127     0.08600
C1525       C  0.58451173  0.40972507  0.62939763    -0.54900
C1526       C  0.60795276  0.38604881  0.65571115     0.09200
H1527       H  0.65473800  0.43498752  0.55615042     0.13700
H1528       H  0.65770858  0.33930075  0.65159074    -0.00500
H1529       H  0.56997640  0.34767291  0.54681707     0.14000
H1530       H  0.56040901  0.42951937  0.64120873     0.13800
C1531       C  0.59781318  0.09497205  0.57989288     0.85600
C1532       C  0.59176608  0.14053332  0.57196872    -0.54600
C1533       C  0.61421137  0.16400432  0.59850243     0.08500
C1534       C  0.64043599  0.14037222  0.63075356     0.19500
C1535       C  0.64346503  0.08807468  0.57499479    -0.55300
C1536       C  0.66576673  0.11095423  0.60262609     0.08600
C1537       C  0.58791511  0.08861076  0.62804107    -0.54900
C1538       C  0.61037576  0.11280669  0.65450558     0.09200
H1539       H  0.57176081  0.15349201  0.54764220     0.13700
H1540       H  0.65884243  0.15973589  0.65262357    -0.00500
H1541       H  0.65700758  0.06718792  0.55170608     0.14000
H1542       H  0.56583726  0.06685822  0.64008484     0.13800
C1543       C  0.91502439  0.10307941  0.91615181     0.85600
C1544       C  0.92095488  0.14877557  0.92422018    -0.54600
C1545       C  0.89654654  0.17235896  0.89914916     0.08500
C1546       C  0.86910740  0.14840356  0.86837593     0.19500
C1547       C  0.86956825  0.09556572  0.92286576    -0.55300
C1548       C  0.84519397  0.11958963  0.89840601     0.08600
C1549       C  0.92290756  0.09710088  0.86795423    -0.54900
C1550       C  0.89886324  0.12086720  0.84294597     0.09200
H1551       H  0.94183096  0.16144375  0.94781916     0.13700
H1552       H  0.84971739  0.16778940  0.84747908    -0.00500
H1553       H  0.85817442  0.07154486  0.94339717     0.14000
H1554       H  0.94473362  0.07551221  0.85468396     0.13800
C1555       C  0.90946138  0.09837125  0.58380538     0.85600
C1556       C  0.86341027  0.09233067  0.57763665    -0.54600
C1557       C  0.84017215  0.11468608  0.60496081     0.08500
C1558       C  0.86476368  0.14047959  0.63685803     0.19500
C1559       C  0.91579809  0.14394961  0.57935361    -0.55300
C1560       C  0.89351020  0.16625403  0.60846225     0.08600
C1561       C  0.91745140  0.08856924  0.63145189    -0.54900
C1562       C  0.89353296  0.11058598  0.65894414     0.09200
H1563       H  0.84991642  0.07265639  0.55342471     0.13700
H1564       H  0.84565773  0.15772432  0.66035958    -0.00500
H1565       H  0.93491264  0.15690134  0.55423689     0.14000
H1566       H  0.93991911  0.06672945  0.64245295     0.13800
C1567       C  0.90610669  0.40870240  0.58212664     0.85600
C1568       C  0.91297086  0.36249076  0.57865858    -0.54600
C1569       C  0.89016258  0.34086410  0.60755359     0.08500
C1570       C  0.86339495  0.36753231  0.63690564     0.19500
C1571       C  0.86048302  0.41469996  0.57667129    -0.55300
C1572       C  0.83799115  0.39274770  0.60519991     0.08600
C1573       C  0.91553727  0.41917700  0.62899957    -0.54900
C1574       C  0.89290773  0.39755986  0.65755908     0.09200
H1575       H  0.93330323  0.34811285  0.55526838     0.13700
H1576       H  0.84562579  0.35104294  0.66175680    -0.00500
H1577       H  0.84719031  0.43440058  0.55233550     0.14000
H1578       H  0.93914619  0.44025937  0.63857069     0.13800
C1579       C  0.90278229  0.41523145  0.91575511     0.85600
C1580       C  0.85604156  0.41926873  0.92036782    -0.54600
C1581       C  0.83481234  0.39359776  0.89372909     0.08500
C1582       C  0.86328973  0.36709349  0.86539714     0.19500
C1583       C  0.91156024  0.37068991  0.92449578    -0.55300
C1584       C  0.89116528  0.34549585  0.89782473     0.08600
C1585       C  0.91192034  0.42233485  0.86803910    -0.54900
C1586       C  0.89124624  0.39697162  0.84175235     0.09200
H1587       H  0.84146923  0.43961715  0.94341853     0.13700
H1588       H  0.84832788  0.34679797  0.84209366    -0.00500
H1589       H  0.93211958  0.35990695  0.94951320     0.14000
H1590       H  0.93313684  0.44497404  0.85606303     0.13800
C1591       C  0.90449961  0.36344158  0.72630546    -0.27200
C1592       C  0.89786075  0.39978288  0.70436634    -0.15300
C1593       C  0.89145907  0.43600173  0.72764967     0.35400
C1594       C  0.89058272  0.43476824  0.77279610    -0.26600
C1595       C  0.89564652  0.39796781  0.79464162    -0.15900
C1596       C  0.90339635  0.36223677  0.77135005     0.36500
N1597       N  0.91030816  0.32473765  0.79326887    -0.90100
H1598       H  0.90965701  0.33565350  0.70832400     0.17600
H1599       H  0.88439347  0.46230361  0.79084049     0.17600
N1600       N  0.88342905  0.47370423  0.70649245    -0.89200
H1601       H  0.93873227  0.31361507  0.78330696     0.34900
H1602       H  0.88813031  0.30419383  0.78318978     0.40000
H1603       H  0.85885502  0.46993106  0.68548269     0.39700
H1604       H  0.90912030  0.48208045  0.68844098     0.34500
C1605       C  0.92914031  0.27604790  0.60821822    -0.27200
C1606       C  0.89129585  0.29619074  0.61004637    -0.15300
C1607       C  0.85532455  0.27309790  0.61408060     0.35400
C1608       C  0.85818111  0.23149863  0.61784896    -0.26600
C1609       C  0.89498753  0.21096177  0.61132677    -0.15900
C1610       C  0.93142892  0.23374578  0.60820755     0.36500
N1611       N  0.97109149  0.21536460  0.60845734    -0.90100
H1612       H  0.95714984  0.29328778  0.60648718     0.17600
H1613       H  0.83068563  0.21537996  0.62522933     0.17600
N1614       N  0.81519263  0.28990719  0.61019082    -0.89200
H1615       H  0.97671435  0.20098784  0.57890858     0.34900
H1616       H  0.97243373  0.19430318  0.63370747     0.40000
H1617       H  0.81417143  0.30872253  0.58290331     0.39700
H1618       H  0.80694526  0.30551431  0.63814687     0.34500
C1619       C  0.86816786  0.09483031  0.77636756    -0.27200
C1620       C  0.89918992  0.11718581  0.79580881    -0.15300
C1621       C  0.93076875  0.13397770  0.77056878     0.35400
C1622       C  0.92958099  0.12941361  0.72541904    -0.26600
C1623       C  0.89713572  0.10904500  0.70594581    -0.15900
C1624       C  0.86622428  0.09140356  0.73126870     0.36500
N1625       N  0.83267585  0.07103731  0.71100843    -0.90100
H1626       H  0.84559941  0.07991678  0.79640104     0.17600
H1627       H  0.95300293  0.14302183  0.70523851     0.17600
N1628       N  0.96353424  0.15555708  0.79084193    -0.89200
H1629       H  0.81255648  0.05969476  0.73445882     0.34900
H1630       H  0.84441474  0.04616607  0.69408205     0.40000
H1631       H  0.95112505  0.18139097  0.80543120     0.39700
H1632       H  0.98445667  0.16559402  0.76746710     0.34500
C1633       C  0.86130276  0.27996047  0.91645398    -0.27200
C1634       C  0.89494980  0.30147652  0.90091643    -0.15300
C1635       C  0.93107032  0.28063785  0.88907361     0.35400
C1636       C  0.93106679  0.23835512  0.88987244    -0.26600
C1637       C  0.89615062  0.21679594  0.90193923    -0.15900
C1638       C  0.86111382  0.23766498  0.91614066     0.36500
N1639       N  0.82576784  0.21582780  0.93055914    -0.90100
H1640       H  0.83540479  0.29632757  0.92952934     0.17600
H1641       H  0.95790013  0.22208792  0.87937811     0.17600
N1642       N  0.96799341  0.30098513  0.87630805    -0.89200
H1643       H  0.80221399  0.23577278  0.93899161     0.34900
H1644       H  0.83382669  0.20069174  0.95898978     0.40000
H1645       H  0.96419099  0.33219428  0.87441335     0.39700
H1646       H  0.97591323  0.29123476  0.84506162     0.34500
C1647       C  0.73036011  0.14597939  0.59496000    -0.27200
C1648       C  0.71033763  0.10962637  0.60332422    -0.15300
C1649       C  0.73331055  0.07366174  0.60979110     0.35400
C1650       C  0.77580450  0.07636891  0.61111499    -0.26600
C1651       C  0.79550704  0.11318586  0.60342693    -0.15900
C1652       C  0.77265285  0.14726752  0.59145078     0.36500
N1653       N  0.79212287  0.18202161  0.57302270    -0.90100
H1654       H  0.71291621  0.17317831  0.58913801     0.17600
H1655       H  0.79363935  0.04944765  0.61774121     0.17600
N1656       N  0.71537840  0.03426097  0.61499450    -0.89200
H1657       H  0.77067192  0.20401006  0.56450896     0.34900
H1658       H  0.80680079  0.17311625  0.54436744     0.40000
H1659       H  0.68362167  0.03511621  0.61520256     0.39700
H1660       H  0.72405867  0.02299937  0.64519997     0.34500
C1661       C  0.59001085  0.22887727  0.62810656    -0.27200
C1662       C  0.61243585  0.20810546  0.59634952    -0.15300
C1663       C  0.63077422  0.22928534  0.56172816     0.35400
C1664       C  0.63098836  0.27159683  0.56291371    -0.26600
C1665       C  0.61070074  0.29221587  0.59634236    -0.15900
C1666       C  0.58764450  0.27103482  0.62736707     0.36700
N1667       N  0.56121134  0.29238559  0.65699001    -0.90100
H1668       H  0.57324597  0.21216157  0.65245087     0.17600
H1669       H  0.64652135  0.28853816  0.53768470     0.17600
N1670       N  0.64754755  0.20795151  0.52498892    -0.89200
H1671       H  0.54607476  0.27218384  0.67753599     0.34900
H1672       H  0.53878775  0.30691149  0.63868559     0.40000
H1673       H  0.67175835  0.18999148  0.53553320     0.39700
H1674       H  0.65975939  0.22826695  0.00260160     0.34500
C1675       C  0.72981066  0.38641331  0.56539646    -0.27200
C1676       C  0.70824103  0.39062504  0.60454391    -0.15300
C1677       C  0.72923579  0.39598369  0.64385341     0.35400
C1678       C  0.77189536  0.39627629  0.64333237    -0.26600
C1679       C  0.79340978  0.39204113  0.60423035    -0.15900
C1680       C  0.77231996  0.38672668  0.56492809     0.36500
N1681       N  0.79391711  0.38019491  0.52486285    -0.90100
H1682       H  0.71357562  0.38192649  0.53522920     0.17600
H1683       H  0.78841573  0.40060841  0.67333289     0.17600
N1684       N  0.70716623  0.40189550  0.68384513    -0.89200
H1685       H  0.78519179  0.40272660  0.50301094     0.34900
H1686       H  0.78494082  0.35231751  0.51211900     0.40000
H1687       H  0.69112643  0.42917791  0.68132103     0.39700
H1688       H  0.72727428  0.40522563  0.70976490     0.34500
C1689       C  0.59541758  0.41757229  0.77340922    -0.27200
C1690       C  0.59989915  0.38025401  0.79436349    -0.15300
C1691       C  0.60508205  0.34487706  0.76953390     0.35400
C1692       C  0.60832543  0.34777951  0.72454725    -0.26600
C1693       C  0.60398692  0.38501113  0.70341024    -0.15900
C1694       C  0.59732566  0.42025265  0.72822090     0.36500
N1695       N  0.59517230  0.45914459  0.70816814    -0.90100
H1696       H  0.59210514  0.44514813  0.79215908     0.17600
H1697       H  0.61408660  0.32043515  0.70633307     0.17600
N1698       N  0.60605924  0.30582097  0.78956878    -0.89200
H1699       H  0.61821178  0.47676447  0.72161826     0.34900
H1700       H  0.56718099  0.47232353  0.71661784     0.40000
H1701       H  0.63359203  0.29175326  0.78106633     0.39700
H1702       H  0.58234832  0.28856852  0.77673329     0.34500
C1703       C  0.72576508  0.35649775  0.87862760    -0.27200
C1704       C  0.70257662  0.38974104  0.89195779    -0.15300
C1705       C  0.72317425  0.42595647  0.90301641     0.35400
C1706       C  0.76608331  0.42632502  0.90349928    -0.26600
C1707       C  0.78918761  0.39171346  0.89264957    -0.15900
C1708       C  0.76803149  0.35647159  0.87995324     0.36500
N1709       N  0.78842195  0.31947202  0.86943829    -0.90100
H1710       H  0.71170229  0.32891569  0.86809816     0.17600
H1711       H  0.78138010  0.45429238  0.91135348     0.17600
N1712       N  0.70098048  0.46264499  0.91199172    -0.89200
H1713       H  0.78137081  0.31194704  0.83736059     0.34900
H1714       H  0.77656132  0.29671904  0.88933228     0.40000
H1715       H  0.68585151  0.47101290  0.88360258     0.39700
H1716       H  0.72072435  0.48630097  0.91968748     0.34500
C1717       C  0.59196091  0.14253022  0.72539246    -0.27200
C1718       C  0.60893208  0.11041553  0.70184986    -0.15300
C1719       C  0.62733974  0.07786581  0.72373038     0.35400
C1720       C  0.62725606  0.07724325  0.76888664    -0.26600
C1721       C  0.61144460  0.10998789  0.79239598    -0.15900
C1722       C  0.59350361  0.14283128  0.77054996     0.36500
N1723       N  0.57588288  0.17627940  0.79345926    -0.90100
H1724       H  0.57795411  0.16764637  0.70870628     0.17600
H1725       H  0.64122562  0.05202400  0.78566643     0.17600
N1726       N  0.64910511  0.04692742  0.70084132    -0.89200
H1727       H  0.59874069  0.19041353  0.81137897     0.34900
H1728       H  0.55394620  0.16488700  0.81480585     0.40000
H1729       H  0.67307684  0.06099910  0.68438245     0.39700
H1730       H  0.62972555  0.03387989  0.67807313     0.34500
C1731       C  0.78080216  0.11567360  0.85795855    -0.27200
C1732       C  0.80024314  0.11591852  0.89822576    -0.15300
C1733       C  0.77632063  0.11259524  0.93662129     0.35400
C1734       C  0.73392139  0.11022490  0.93343481    -0.26600
C1735       C  0.71466307  0.10936571  0.89288148    -0.15900
C1736       C  0.73879644  0.11095086  0.85471727     0.36500
N1737       N  0.72234068  0.10483279  0.81228674    -0.90100
H1738       H  0.79837598  0.11824432  0.82836061     0.17600
H1739       H  0.71584597  0.10897394  0.96300667     0.17600
N1740       N  0.79356569  0.11295391  0.97924543    -0.89200
H1741       H  0.70357942  0.12894092  0.80385766     0.34900
H1742       H  0.70561077  0.07801341  0.81242202     0.40000
H1743       H  0.81562577  0.13555666  0.98103976     0.39700
H1744       H  0.80700263  0.08498147  0.48540416     0.34500
C1745       C  0.64785173  0.22359373  0.91046935    -0.27200
C1746       C  0.61239405  0.20133299  0.90371308    -0.15300
C1747       C  0.57455165  0.22112423  0.90056969     0.35400
C1748       C  0.57322372  0.26338769  0.90027175    -0.26600
C1749       C  0.60909249  0.28584202  0.90480133    -0.15900
C1750       C  0.64615591  0.26579506  0.91313412     0.36500
N1751       N  0.68135585  0.28821688  0.92613308    -0.90100
H1752       H  0.67660944  0.20792737  0.91491714     0.17600
H1753       H  0.54438091  0.27866804  0.89558687     0.17600
N1754       N  0.53778912  0.19838108  0.89601165    -0.89200
H1755       H  0.70600583  0.26886272  0.93175013     0.34900
H1756       H  0.67445139  0.30223694  0.95575575     0.40000
H1757       H  0.52405620  0.20719141  0.86703020     0.39700
H1758       H  0.51832682  0.20604494  0.92176677     0.34500
O1759       O  0.96600328  0.93493441  0.44552923    -0.81000
O1760       O  0.53708828  0.56821151  0.44351634    -0.81000
O1761       O  0.93207505  0.53859340  0.44612412    -0.81000
O1762       O  0.57084111  0.96384911  0.44543053    -0.81000
O1763       O  0.96646892  0.59193353  0.46696040    -0.81100
O1764       O  0.53650275  0.91073825  0.46735401    -0.81000
O1765       O  0.59210538  0.53564258  0.46414451    -0.81000
O1766       O  0.91068453  0.96699706  0.46715782    -0.81000
C1767       C  0.92776017  0.94095383  0.44374660     1.08700
C1768       C  0.57520352  0.56148658  0.44058135     1.08600
C1769       C  0.93963253  0.57623380  0.44384255     1.08700
C1770       C  0.56323930  0.92621612  0.44367302     1.08600
O1771       O  0.53164635  0.92423979  0.04884844    -0.81000
O1772       O  0.97243736  0.57992064  0.04854185    -0.81100
O1773       O  0.92362723  0.97111686  0.04823045    -0.81000
O1774       O  0.58008556  0.53154370  0.04743164    -0.81000
O1775       O  0.54797438  0.58702097  0.02739693    -0.81100
O1776       O  0.95591567  0.91522749  0.02880849    -0.81000
O1777       O  0.58799383  0.95615829  0.02989739    -0.81000
O1778       O  0.91608755  0.54746113  0.03153009    -0.81000
Co1779     Co  0.49825390  0.94323404  0.99901426     1.51500
Co1780     Co  0.00521389  0.55977443  0.49801407     1.51700
Co1781     Co  0.94271536  0.00546570  0.49904302     1.51600
Co1782     Co  0.56068841  0.49777837  0.99801904     1.51500
O1783       O  0.50169005  0.00156357  0.50545458    -1.42900
C1784       C  0.56984845  0.92999880  0.05225727     1.08600
C1785       C  0.93433350  0.57395360  0.05321388     1.08700
C1786       C  0.92977077  0.93316652  0.05148956     1.08600
C1787       C  0.57391970  0.56945903  0.05037800     1.08600
C1788       C  0.60087747  0.58731900  0.41265308     0.85600
C1789       C  0.64738631  0.58121648  0.41668353    -0.54600
C1790       C  0.66959985  0.60730944  0.39163101     0.08500
C1791       C  0.64312490  0.63675020  0.36544043     0.19500
C1792       C  0.59369901  0.63164004  0.42404566    -0.55300
C1793       C  0.61560148  0.65740248  0.39918602     0.08600
C1794       C  0.59209224  0.58327417  0.36434316    -0.54900
C1795       C  0.61425704  0.60935675  0.33967430     0.09200
H1796       H  0.66151202  0.55899164  0.43776909     0.13700
H1797       H  0.66027200  0.65893032  0.34563566    -0.00500
H1798       H  0.57313016  0.64184354  0.44966771     0.14000
H1799       H  0.57055425  0.56186113  0.35082578     0.13800
C1800       C  0.58768640  0.89920415  0.41582008     0.85600
C1801       C  0.58310506  0.85384127  0.42555624    -0.54600
C1802       C  0.60756218  0.83017567  0.40038380     0.08500
C1803       C  0.63312876  0.85399732  0.36711168     0.19500
C1804       C  0.63304789  0.90753133  0.42078613    -0.55300
C1805       C  0.65737977  0.88517493  0.39400473     0.08600
C1806       C  0.57830967  0.90366422  0.36777165    -0.54900
C1807       C  0.60190120  0.87945645  0.34205250     0.09200
H1808       H  0.56325455  0.84145654  0.45056121     0.13700
H1809       H  0.65179362  0.83465577  0.34558185    -0.00500
H1810       H  0.64435847  0.92854700  0.44483554     0.14000
H1811       H  0.55499320  0.92389117  0.35533853     0.13800
C1812       C  0.59479902  0.90466782  0.08121696     0.85600
C1813       C  0.64093004  0.91269638  0.07750651    -0.54600
C1814       C  0.66361006  0.88878003  0.10372837     0.08500
C1815       C  0.63859773  0.85918482  0.13097736     0.19500
C1816       C  0.59002655  0.85977751  0.07155822    -0.55300
C1817       C  0.61274144  0.83612361  0.09793985     0.08600
C1818       C  0.58450983  0.90972261  0.12939685    -0.54900
C1819       C  0.60795073  0.88604643  0.15571051     0.09200
H1820       H  0.65473691  0.93498622  0.05615095     0.13700
H1821       H  0.65770682  0.83929863  0.15159050    -0.00500
H1822       H  0.56997623  0.84767107  0.04681534     0.14000
H1823       H  0.56040705  0.92951690  0.14120783     0.13800
C1824       C  0.59781229  0.59497038  0.07989232     0.85600
C1825       C  0.59176564  0.64053164  0.07196797    -0.54600
C1826       C  0.61421096  0.66400240  0.09850192     0.08500
C1827       C  0.64043565  0.64037028  0.13075275     0.19500
C1828       C  0.64346412  0.58807245  0.07499429    -0.55300
C1829       C  0.66576616  0.61095193  0.10262539     0.08600
C1830       C  0.58791407  0.58860953  0.12804050    -0.54900
C1831       C  0.61037505  0.61280533  0.15450485     0.09200
H1832       H  0.57176045  0.65349043  0.04764141     0.13700
H1833       H  0.65884228  0.65973390  0.15262262    -0.00500
H1834       H  0.65700642  0.56718544  0.05170570     0.14000
H1835       H  0.56583590  0.56685737  0.14008441     0.13800
C1836       C  0.91502547  0.60308096  0.41615197     0.85600
C1837       C  0.92095619  0.64877721  0.42421945    -0.54600
C1838       C  0.89654775  0.67236025  0.39914811     0.08500
C1839       C  0.86910854  0.64840451  0.36837536     0.19500
C1840       C  0.86956927  0.59556764  0.42286628    -0.55300
C1841       C  0.84519515  0.61959116  0.39840593     0.08600
C1842       C  0.92290846  0.59710163  0.36795447    -0.54900
C1843       C  0.89886421  0.62086770  0.34294594     0.09200
H1844       H  0.94183237  0.66144568  0.44781816     0.13700
H1845       H  0.84971845  0.66778997  0.34747817    -0.00500
H1846       H  0.85817508  0.57154741  0.44339856     0.14000
H1847       H  0.94473434  0.57551263  0.35468447     0.13800
C1848       C  0.90946036  0.59836884  0.08380591     0.85600
C1849       C  0.86340945  0.59232740  0.07763742    -0.54600
C1850       C  0.84017126  0.61468245  0.10496154     0.08500
C1851       C  0.86476225  0.64047705  0.13685812     0.19500
C1852       C  0.91579631  0.64394719  0.07935335    -0.55300
C1853       C  0.89350832  0.66625163  0.10846179     0.08600
C1854       C  0.91745070  0.58856753  0.13145257    -0.54900
C1855       C  0.89353187  0.61058418  0.15894459     0.09200
H1856       H  0.84991568  0.57265291  0.05342558     0.13700
H1857       H  0.84565603  0.65772167  0.16035952    -0.00500
H1858       H  0.93491020  0.65689863  0.05423616     0.14000
H1859       H  0.93991884  0.56672830  0.14245385     0.13800
C1860       C  0.90610530  0.90869994  0.08212581     0.85600
C1861       C  0.91296880  0.86248806  0.07865846    -0.54600
C1862       C  0.89016057  0.84086204  0.10755441     0.08500
C1863       C  0.86339402  0.86753132  0.13690639     0.19500
C1864       C  0.86048159  0.91469785  0.07667114    -0.55300
C1865       C  0.83798992  0.89274617  0.10520040     0.08600
C1866       C  0.91553678  0.91917504  0.12899835    -0.54900
C1867       C  0.89290756  0.89755866  0.15755857     0.09200
H1868       H  0.93330073  0.84810974  0.05526811     0.13700
H1869       H  0.84562661  0.85104467  0.16175906    -0.00500
H1870       H  0.84718877  0.93439816  0.05233515     0.14000
H1871       H  0.93914624  0.94025709  0.13856870     0.13800
C1872       C  0.90278423  0.91523286  0.41575449     0.85600
C1873       C  0.85604347  0.91927028  0.42036705    -0.54600
C1874       C  0.83481420  0.89359933  0.39372837     0.08500
C1875       C  0.86329165  0.86709485  0.36539661     0.19500
C1876       C  0.91156218  0.87069125  0.42449522    -0.55300
C1877       C  0.89116738  0.84549717  0.39782405     0.08600
C1878       C  0.91192242  0.92233604  0.36803843    -0.54900
C1879       C  0.89124832  0.89697268  0.34175175     0.09200
H1880       H  0.84147115  0.93961887  0.44341759     0.13700
H1881       H  0.84832976  0.84679935  0.34209321    -0.00500
H1882       H  0.93212148  0.85990830  0.44951265     0.14000
H1883       H  0.93313911  0.94497503  0.35606231     0.13800
C1884       C  0.90449956  0.86344074  0.22630524    -0.27200
C1885       C  0.89786154  0.89978200  0.20436570    -0.15300
C1886       C  0.89146157  0.93600134  0.22764863     0.35400
C1887       C  0.89058600  0.93476847  0.27279505    -0.26600
C1888       C  0.89564885  0.89796818  0.29464103    -0.15900
C1889       C  0.90339722  0.86223657  0.27134985     0.36500
N1890       N  0.91030868  0.82473757  0.29326904    -0.90100
H1891       H  0.90965566  0.83565225  0.20832410     0.17600
H1892       H  0.88439786  0.96230427  0.29083911     0.17600
N1893       N  0.88343215  0.97370376  0.20649103    -0.89200
H1894       H  0.93873055  0.81361454  0.28330685     0.34900
H1895       H  0.88812871  0.80419325  0.28319053     0.40000
H1896       H  0.85885857  0.96993108  0.18548219     0.39700
H1897       H  0.90912425  0.98207947  0.18843867     0.34500
C1898       C  0.92913775  0.77604574  0.10821758    -0.27200
C1899       C  0.89129325  0.79618842  0.11004852    -0.15300
C1900       C  0.85532243  0.77309559  0.11408699     0.35400
C1901       C  0.85817902  0.73149570  0.11785049    -0.26600
C1902       C  0.89498549  0.71095939  0.11132608    -0.15900
C1903       C  0.93142663  0.73374363  0.10820628     0.36500
N1904       N  0.97108952  0.71536287  0.10845336    -0.90100
H1905       H  0.95714723  0.79328562  0.10648530     0.17600
H1906       H  0.83068386  0.71537655  0.12523037     0.17600
N1907       N  0.81518859  0.78990464  0.11021344    -0.89200
H1908       H  0.97671043  0.70098906  0.07891071     0.34900
H1909       H  0.97243339  0.69429778  0.13370874     0.40000
H1910       H  0.81415953  0.80873863  0.08289891     0.39700
H1911       H  0.80695438  0.80549280  0.13814196     0.34500
C1912       C  0.86816935  0.59482828  0.27636883    -0.27200
C1913       C  0.89919058  0.61718564  0.29580902    -0.15300
C1914       C  0.93076773  0.63397945  0.27056820     0.35400
C1915       C  0.92957938  0.62941484  0.22541858    -0.26600
C1916       C  0.89713488  0.60904419  0.20594636    -0.15900
C1917       C  0.86622468  0.59140174  0.23126987     0.36500
N1918       N  0.83267542  0.57103506  0.21101152    -0.90100
H1919       H  0.84560230  0.57991372  0.29640299     0.17600
H1920       H  0.95300021  0.64302424  0.20523747     0.17600
N1921       N  0.96353206  0.65556111  0.29084067    -0.89200
H1922       H  0.81256080  0.55969300  0.23445874     0.34900
H1923       H  0.84441627  0.54616057  0.19408101     0.40000
H1924       H  0.95112168  0.68139385  0.30542960     0.39700
H1925       H  0.98445396  0.66559933  0.26746495     0.34500
C1926       C  0.86130396  0.77996193  0.41645125    -0.27200
C1927       C  0.89495182  0.80147762  0.40091543    -0.15300
C1928       C  0.93107218  0.78063887  0.38907302     0.35400
C1929       C  0.93106846  0.73835588  0.38987219    -0.26600
C1930       C  0.89615166  0.71679715  0.40193760    -0.15900
C1931       C  0.86111434  0.73766652  0.41613696     0.36500
N1932       N  0.82576733  0.71582952  0.43055272    -0.90100
H1933       H  0.83540580  0.79632911  0.42952610     0.17600
H1934       H  0.95790187  0.72208850  0.37937893     0.17600
N1935       N  0.96799575  0.80098446  0.37630647    -0.89200
H1936       H  0.80221239  0.73577509  0.43898306     0.34900
H1937       H  0.83382395  0.70069457  0.45898353     0.40000
H1938       H  0.96419267  0.83220105  0.37441242     0.39700
H1939       H  0.97591313  0.79123664  0.34506643     0.34500
C1940       C  0.73036069  0.64597632  0.09495915    -0.27200
C1941       C  0.71033737  0.60962366  0.10332349    -0.15300
C1942       C  0.73330964  0.57365877  0.10979085     0.35400
C1943       C  0.77580377  0.57636544  0.11111539    -0.26600
C1944       C  0.79550678  0.61318206  0.10342709    -0.15900
C1945       C  0.77265297  0.64726371  0.09144935     0.36500
N1946       N  0.79212592  0.68201513  0.07301894    -0.90100
H1947       H  0.71291803  0.67317584  0.08913832     0.17600
H1948       H  0.79363833  0.54944430  0.11774212     0.17600
N1949       N  0.71537826  0.53425787  0.11499486    -0.89200
H1950       H  0.77066714  0.70401260  0.06450190     0.34900
H1951       H  0.80679665  0.67311223  0.04437561     0.40000
H1952       H  0.68361586  0.53511343  0.11520136     0.39700
H1953       H  0.72405614  0.52299847  0.14519626     0.34500
C1954       C  0.59000978  0.72887556  0.12810523    -0.27200
C1955       C  0.61243566  0.70810309  0.09634929    -0.15300
C1956       C  0.63077555  0.72928300  0.06172820     0.35400
C1957       C  0.63098878  0.77159397  0.06291283    -0.26600
C1958       C  0.61070036  0.79221375  0.09634053    -0.15900
C1959       C  0.58764356  0.77103303  0.12736518     0.36700
N1960       N  0.56121007  0.79238425  0.15698741    -0.90100
H1961       H  0.57324432  0.71216003  0.15244924     0.17600
H1962       H  0.64652263  0.78853495  0.03768363     0.17600
N1963       N  0.64755138  0.70794587  0.02499238    -0.89200
H1964       H  0.54607268  0.77218174  0.17753449     0.34900
H1965       H  0.53878755  0.80690918  0.13868338     0.40000
H1966       H  0.67174965  0.68999732  0.03553188     0.39700
H1967       H  0.65976058  0.72827013  0.50259722     0.34500
C1968       C  0.72980934  0.88641182  0.06539687    -0.27200
C1969       C  0.70823970  0.89062308  0.10454436    -0.15300
C1970       C  0.72923449  0.89598061  0.14385403     0.35400
C1971       C  0.77189405  0.89627326  0.14333299    -0.26600
C1972       C  0.79340850  0.89203908  0.10423087    -0.15900
C1973       C  0.77231865  0.88672500  0.06492853     0.36500
N1974       N  0.79391571  0.88019340  0.02486320    -0.90100
H1975       H  0.71357431  0.88192550  0.03522953     0.17600
H1976       H  0.78841439  0.90060478  0.17333363     0.17600
N1977       N  0.70716493  0.90189134  0.18384591    -0.89200
H1978       H  0.78519049  0.90272497  0.00301164     0.34900
H1979       H  0.78493927  0.85231573  0.01211912     0.40000
H1980       H  0.69112542  0.92917366  0.18132280     0.39700
H1981       H  0.72727319  0.90522058  0.20976607     0.34500
C1982       C  0.59541749  0.91757218  0.27340820    -0.27200
C1983       C  0.59989943  0.88025432  0.29436320    -0.15300
C1984       C  0.60508157  0.84487685  0.26953425     0.35400
C1985       C  0.60832371  0.84777833  0.22454740    -0.26600
C1986       C  0.60398521  0.88500958  0.20340968    -0.15900
C1987       C  0.59732483  0.92025166  0.22821975     0.36500
N1988       N  0.59517198  0.95914330  0.20816625    -0.90100
H1989       H  0.59210555  0.94514838  0.29215755     0.17600
H1990       H  0.61408407  0.82043358  0.20633358     0.17600
N1991       N  0.60605925  0.80582118  0.28957004    -0.89200
H1992       H  0.61821074  0.97676224  0.22161511     0.34900
H1993       H  0.56717967  0.97232336  0.21661639     0.40000
H1994       H  0.63359224  0.79175314  0.28106702     0.39700
H1995       H  0.58234836  0.78856868  0.27673584     0.34500
C1996       C  0.72576669  0.85649963  0.37862692    -0.27200
C1997       C  0.70257830  0.88974294  0.39195703    -0.15300
C1998       C  0.72317599  0.92595842  0.40301546     0.35400
C1999       C  0.76608506  0.92632686  0.40349845    -0.26600
C2000       C  0.78918937  0.89171526  0.39264869    -0.15900
C2001       C  0.76803309  0.85647351  0.37995216     0.36500
N2002       N  0.78842331  0.81947404  0.36943637    -0.90100
H2003       H  0.71170382  0.82891753  0.36809777     0.17600
H2004       H  0.78138186  0.95429422  0.41135271     0.17600
N2005       N  0.70098203  0.96264690  0.41199033    -0.89200
H2006       H  0.78137200  0.81194968  0.33735858     0.34900
H2007       H  0.77656259  0.79672073  0.38932992     0.40000
H2008       H  0.68585370  0.97101438  0.38360206     0.39700
H2009       H  0.72072662  0.98630377  0.41968634     0.34500
C2010       C  0.59196064  0.64252916  0.22539170    -0.27200
C2011       C  0.60893153  0.61041437  0.20184905    -0.15300
C2012       C  0.62733864  0.57786429  0.22372942     0.35400
C2013       C  0.62725692  0.57724263  0.26888567    -0.26600
C2014       C  0.61144592  0.60998747  0.29239506    -0.15900
C2015       C  0.59350337  0.64283011  0.27054918     0.36500
N2016       N  0.57588004  0.67627670  0.29345875    -0.90100
H2017       H  0.57795340  0.66764512  0.20870557     0.17600
H2018       H  0.64122678  0.55202349  0.28566538     0.17600
N2019       N  0.64910037  0.54692377  0.20083979    -0.89200
H2020       H  0.59874113  0.69041469  0.31138134     0.34900
H2021       H  0.55394817  0.66488473  0.31480189     0.40000
H2022       H  0.67307864  0.56099702  0.18437625     0.39700
H2023       H  0.62972390  0.53388073  0.17807722     0.34500
C2024       C  0.78080379  0.61567216  0.35795812    -0.27200
C2025       C  0.80024448  0.61592000  0.39822548    -0.15300
C2026       C  0.77632179  0.61259937  0.43662111     0.35400
C2027       C  0.73392267  0.61022831  0.43343459    -0.26600
C2028       C  0.71466466  0.60936614  0.39288117    -0.15900
C2029       C  0.73879816  0.61094877  0.35471698     0.36500
N2030       N  0.72234249  0.60482767  0.31228691    -0.90100
H2031       H  0.79837781  0.61824113  0.32836017     0.17600
H2032       H  0.71584701  0.60897931  0.46300643     0.17600
N2033       N  0.79356701  0.61296207  0.47924516    -0.89200
H2034       H  0.70358004  0.62893491  0.30385649     0.34900
H2035       H  0.70561351  0.57800807  0.31242415     0.40000
H2036       H  0.81562463  0.63556121  0.48103658     0.39700
H2037       H  0.80700499  0.58497286  0.98540724     0.34500
C2038       C  0.64785408  0.72359493  0.41046766    -0.27200
C2039       C  0.61239645  0.70133426  0.40371059    -0.15300
C2040       C  0.57455412  0.72112561  0.40056702     0.35400
C2041       C  0.57322615  0.76338909  0.40027005    -0.26600
C2042       C  0.60909480  0.78584339  0.40480057    -0.15900
C2043       C  0.64615820  0.76579628  0.41313321     0.36500
N2044       N  0.68135799  0.78821797  0.42613290    -0.90100
H2045       H  0.67661172  0.70792850  0.41491561     0.17600
H2046       H  0.54438339  0.77866950  0.39558510     0.17600
N2047       N  0.53779165  0.69838259  0.39600785    -0.89200
H2048       H  0.70600812  0.76886360  0.43174981     0.34900
H2049       H  0.67445334  0.80223741  0.45575563     0.40000
H2050       H  0.52405923  0.70719364  0.36702794     0.39700
H2051       H  0.51832864  0.70604583  0.42176428     0.34500
O2052       O  0.96600221  0.93493229  0.94552932    -0.81000
O2053       O  0.53708670  0.56820986  0.94351644    -0.81000
O2054       O  0.93207488  0.53859160  0.94612339    -0.81000
O2055       O  0.57083980  0.96384750  0.94543055    -0.81000
O2056       O  0.96646728  0.59193205  0.96696119    -0.81100
O2057       O  0.53650166  0.91073646  0.96735389    -0.81000
O2058       O  0.59210380  0.53564092  0.96414445    -0.81000
O2059       O  0.91068333  0.96699477  0.96715782    -0.81000
C2060       C  0.92775909  0.94095167  0.94374660     1.08700
C2061       C  0.57520197  0.56148500  0.94058142     1.08600
C2062       C  0.93963169  0.57623215  0.94384248     1.08700
C2063       C  0.56323813  0.92621450  0.94367292     1.08600
O2064       O  0.53164719  0.92424211  0.54884853    -0.81000
O2065       O  0.97243832  0.57992282  0.54854104    -0.81100
O2066       O  0.92362872  0.97111958  0.54823075    -0.81000
O2067       O  0.58008697  0.53154505  0.54743209    -0.81000
O2068       O  0.54797576  0.58702221  0.52739717    -0.81100
O2069       O  0.95591678  0.91523017  0.52880840    -0.81000
O2070       O  0.58799484  0.95616016  0.52989725    -0.81000
O2071       O  0.91608864  0.54746247  0.53153046    -0.81000
Co2072     Co  0.49825511  0.94323628  0.49901410     1.51500
Co2073     Co  0.00521246  0.55977285  0.99801430     1.51700
Co2074     Co  0.94271390  0.00546345  0.99904305     1.51600
Co2075     Co  0.56069004  0.49777987  0.49801916     1.51500
O2076       O  0.50168859  0.00156135  0.00545508    -1.42900
C2077       C  0.56984932  0.93000086  0.55225726     1.08600
C2078       C  0.93433451  0.57395562  0.55321343     1.08700
C2079       C  0.92977205  0.93316923  0.55148967     1.08600
C2080       C  0.57392095  0.56946034  0.55037853     1.08600
C2081       C  0.60087608  0.58731772  0.91265365     0.85600
C2082       C  0.64738494  0.58121491  0.91668414    -0.54600
C2083       C  0.66959869  0.60730814  0.89163217     0.08500
C2084       C  0.64312390  0.63674949  0.86544214     0.19500
C2085       C  0.59369779  0.63163859  0.92404708    -0.55300
C2086       C  0.61560043  0.65740131  0.89918799     0.08600
C2087       C  0.59209097  0.58327377  0.86434361    -0.54900
C2088       C  0.61425596  0.60935670  0.83967535     0.09200
H2089       H  0.66151049  0.55898956  0.93776921     0.13700
H2090       H  0.66027117  0.65892987  0.84563785    -0.00500
H2091       H  0.57312879  0.64184176  0.94966915     0.14000
H2092       H  0.57055298  0.56186100  0.85082572     0.13800
C2093       C  0.58768529  0.89920265  0.91581992     0.85600
C2094       C  0.58310394  0.85383987  0.92555618    -0.54600
C2095       C  0.60756096  0.83017423  0.90038376     0.08500
C2096       C  0.63312762  0.85399576  0.86711156     0.19500
C2097       C  0.63304680  0.90752983  0.92078593    -0.55300
C2098       C  0.65737871  0.88517338  0.89400457     0.08600
C2099       C  0.57830851  0.90366263  0.86777151    -0.54900
C2100       C  0.60190010  0.87945493  0.84205231     0.09200
H2101       H  0.56325353  0.84145519  0.95056126     0.13700
H2102       H  0.65179248  0.83465412  0.84558187    -0.00500
H2103       H  0.64435731  0.92854543  0.94483543     0.14000
H2104       H  0.55499203  0.92388961  0.85533847     0.13800
C2105       C  0.59479981  0.90466973  0.58121679     0.85600
C2106       C  0.64093082  0.91269805  0.57750594    -0.54600
C2107       C  0.66361093  0.88878160  0.60372751     0.08500
C2108       C  0.63859866  0.85918650  0.63097676     0.19500
C2109       C  0.59002697  0.85977948  0.57155808    -0.55300
C2110       C  0.61274187  0.83612546  0.59793955     0.08600
C2111       C  0.58451092  0.90972447  0.62939675    -0.54900
C2112       C  0.60795188  0.88604816  0.65571027     0.09200
H2113       H  0.65473765  0.93498790  0.55615036     0.13700
H2114       H  0.65770791  0.83930019  0.65158959    -0.00500
H2115       H  0.56997628  0.84767317  0.54681547     0.14000
H2116       H  0.56040791  0.92951847  0.64120771     0.13800
C2117       C  0.59781328  0.59497190  0.57989311     0.85600
C2118       C  0.59176576  0.64053309  0.57196895    -0.54600
C2119       C  0.61421073  0.66400428  0.59850276     0.08500
C2120       C  0.64043603  0.64037255  0.63075347     0.19500
C2121       C  0.64346528  0.58807473  0.57499499    -0.55300
C2122       C  0.66576705  0.61095459  0.60262601     0.08600
C2123       C  0.58791540  0.58861079  0.62804136    -0.54900
C2124       C  0.61037604  0.61280699  0.65450569     0.09200
H2125       H  0.57176029  0.65349160  0.54764248     0.13700
H2126       H  0.65884240  0.65973649  0.65262327    -0.00500
H2127       H  0.65700789  0.56718785  0.55170651     0.14000
H2128       H  0.56583767  0.56685821  0.64008531     0.13800
C2129       C  0.91502465  0.60307920  0.91615188     0.85600
C2130       C  0.92095493  0.64877544  0.92421983    -0.54600
C2131       C  0.89654650  0.67235848  0.89914853     0.08500
C2132       C  0.86910769  0.64840274  0.86837532     0.19500
C2133       C  0.86956848  0.59556543  0.92286575    -0.55300
C2134       C  0.84519433  0.61958899  0.89840552     0.08600
C2135       C  0.92290810  0.59710030  0.86795441    -0.54900
C2136       C  0.89886386  0.62086635  0.84294584     0.09200
H2137       H  0.94183095  0.66144391  0.94781869     0.13700
H2138       H  0.84971760  0.66778824  0.84747819    -0.00500
H2139       H  0.85817418  0.57154509  0.94339808     0.14000
H2140       H  0.94473432  0.57551162  0.85468444     0.13800
C2141       C  0.90946152  0.59837126  0.58380537     0.85600
C2142       C  0.86341046  0.59233078  0.57763657    -0.54600
C2143       C  0.84017252  0.61468600  0.60496093     0.08500
C2144       C  0.86476390  0.64047962  0.63685803     0.19500
C2145       C  0.91579838  0.64394963  0.57935359    -0.55300
C2146       C  0.89351043  0.66625403  0.60846214     0.08600
C2147       C  0.91745143  0.58856921  0.63145191    -0.54900
C2148       C  0.89353293  0.61058590  0.65894416     0.09200
H2149       H  0.84991650  0.57265662  0.55342456     0.13700
H2150       H  0.84565795  0.65772439  0.66035957    -0.00500
H2151       H  0.93491313  0.65690149  0.55423698     0.14000
H2152       H  0.93991904  0.56672932  0.64245297     0.13800
C2153       C  0.90610637  0.90870250  0.58212556     0.85600
C2154       C  0.91297018  0.86249072  0.57865759    -0.54600
C2155       C  0.89016187  0.84086424  0.60755289     0.08500
C2156       C  0.86339481  0.86753291  0.63690504     0.19500
C2157       C  0.86048265  0.91470026  0.57667050    -0.55300
C2158       C  0.83799084  0.89274811  0.60519925     0.08600
C2159       C  0.91553733  0.91917710  0.62899837    -0.54900
C2160       C  0.89290794  0.89756021  0.65755807     0.09200
H2161       H  0.93330242  0.84811272  0.55526731     0.13700
H2162       H  0.84562699  0.85104533  0.66175707    -0.00500
H2163       H  0.84718994  0.93440088  0.55233473     0.14000
H2164       H  0.93914657  0.94025917  0.63856923     0.13800
C2165       C  0.90278323  0.91523087  0.91575431     0.85600
C2166       C  0.85604251  0.91926825  0.92036706    -0.54600
C2167       C  0.83481319  0.89359752  0.89372822     0.08500
C2168       C  0.86329051  0.86709326  0.86539611     0.19500
C2169       C  0.91156118  0.87068925  0.92449466    -0.55300
C2170       C  0.89116622  0.84549537  0.89782342     0.08600
C2171       C  0.91192129  0.92233445  0.86803831    -0.54900
C2172       C  0.89124708  0.89697137  0.84175143     0.09200
H2173       H  0.84147023  0.93961661  0.94341786     0.13700
H2174       H  0.84832849  0.84679792  0.84209261    -0.00500
H2175       H  0.93212047  0.85990612  0.94951202     0.14000
H2176       H  0.93313790  0.94497360  0.85606236     0.13800
C2177       C  0.90449953  0.86344144  0.72630433    -0.27200
C2178       C  0.89786141  0.89978297  0.70436535    -0.15300
C2179       C  0.89146079  0.93600188  0.72764886     0.35400
C2180       C  0.89058434  0.93476820  0.77279529    -0.26600
C2181       C  0.89564732  0.89796760  0.79464067    -0.15900
C2182       C  0.90339621  0.86223644  0.77134890     0.36500
N2183       N  0.91030666  0.82473695  0.79326748    -0.90100
H2184       H  0.90965624  0.83565330  0.70832275     0.17600
H2185       H  0.88439573  0.96230365  0.79083979     0.17600
N2186       N  0.88343237  0.97370483  0.70649189    -0.89200
H2187       H  0.93873210  0.81361312  0.78330518     0.34900
H2188       H  0.88812961  0.80419490  0.78318855     0.40000
H2189       H  0.85885616  0.96993229  0.68548055     0.39700
H2190       H  0.90912176  0.98207962  0.68844189     0.34500
C2191       C  0.92913956  0.77604809  0.60821729    -0.27200
C2192       C  0.89129493  0.79619068  0.61004630    -0.15300
C2193       C  0.85532403  0.77309779  0.61408321     0.35400
C2194       C  0.85818067  0.73149812  0.61784861    -0.26600
C2195       C  0.89498735  0.71096174  0.61132619    -0.15900
C2196       C  0.93142859  0.73374599  0.60820768     0.36500
N2197       N  0.97109118  0.71536491  0.60846004    -0.90100
H2198       H  0.95714905  0.79328808  0.60648594     0.17600
H2199       H  0.83068547  0.71537902  0.62522838     0.17600
N2200       N  0.81519061  0.78990670  0.61020484    -0.89200
H2201       H  0.97671551  0.70098553  0.57890878     0.34900
H2202       H  0.97243246  0.69430629  0.63370829     0.40000
H2203       H  0.81416386  0.80873666  0.58289467     0.39700
H2204       H  0.80695318  0.80549911  0.63813757     0.34500
C2205       C  0.86816865  0.59482921  0.77636783    -0.27200
C2206       C  0.89919084  0.61718470  0.79580877    -0.15300
C2207       C  0.93076943  0.63397671  0.77056865     0.35400
C2208       C  0.92958116  0.62941308  0.72541884    -0.26600
C2209       C  0.89713556  0.60904477  0.70594592    -0.15900
C2210       C  0.86622438  0.59140326  0.73126880     0.36500
N2211       N  0.83267471  0.57103792  0.71100967    -0.90100
H2212       H  0.84560068  0.57991539  0.79640143     0.17600
H2213       H  0.95300296  0.64302139  0.70523824     0.17600
N2214       N  0.96353541  0.65555558  0.79084154    -0.89200
H2215       H  0.81255920  0.55969637  0.73445657     0.34900
H2216       H  0.84441489  0.54616324  0.69407932     0.40000
H2217       H  0.95112609  0.68139026  0.80543193     0.39700
H2218       H  0.98445686  0.66559236  0.76746750     0.34500
C2219       C  0.86130332  0.77996031  0.91645269    -0.27200
C2220       C  0.89495051  0.80147590  0.90091491    -0.15300
C2221       C  0.93107064  0.78063701  0.88907165     0.35400
C2222       C  0.93106683  0.73835414  0.88987079    -0.26600
C2223       C  0.89615056  0.71679543  0.90193804    -0.15900
C2224       C  0.86111401  0.73766483  0.91613947     0.36500
N2225       N  0.82576796  0.71582807  0.93055847    -0.90100
H2226       H  0.83540556  0.79632764  0.92952819     0.17600
H2227       H  0.95789998  0.72208669  0.87937645     0.17600
N2228       N  0.96799394  0.80098314  0.87630499    -0.89200
H2229       H  0.80221458  0.73577293  0.93899030     0.34900
H2230       H  0.83382707  0.70069309  0.95898967     0.40000
H2231       H  0.96419125  0.83219662  0.87441077     0.39700
H2232       H  0.97591196  0.79123419  0.84506213     0.34500
C2233       C  0.73036135  0.64597944  0.59495871    -0.27200
C2234       C  0.71033845  0.60962679  0.60332415    -0.15300
C2235       C  0.73331099  0.57366233  0.60979249     0.35400
C2236       C  0.77580525  0.57636932  0.61111664    -0.26600
C2237       C  0.79550793  0.61318583  0.60342713    -0.15900
C2238       C  0.77265373  0.64726718  0.59144899     0.36500
N2239       N  0.79212629  0.68201860  0.57301822    -0.90100
H2240       H  0.71291817  0.67317866  0.58913654     0.17600
H2241       H  0.79363998  0.54944849  0.61774384     0.17600
N2242       N  0.71538071  0.53426121  0.61499793    -0.89200
H2243       H  0.77066760  0.70401559  0.56450105     0.34900
H2244       H  0.80679745  0.67311543  0.54437456     0.40000
H2245       H  0.68361429  0.53511663  0.61520347     0.39700
H2246       H  0.72405729  0.52300402  0.64519664     0.34500
C2247       C  0.59000966  0.72887780  0.62810592    -0.27200
C2248       C  0.61243494  0.70810514  0.59634962    -0.15300
C2249       C  0.63077381  0.72928466  0.56172786     0.35400
C2250       C  0.63098761  0.77159579  0.56291236    -0.26600
C2251       C  0.61070014  0.79221573  0.59634052    -0.15900
C2252       C  0.58764353  0.77103526  0.62736559     0.36700
N2253       N  0.56121038  0.79238710  0.65698762    -0.90100
H2254       H  0.57324456  0.71216250  0.65245048     0.17600
H2255       H  0.64652094  0.78853660  0.53768286     0.17600
N2256       N  0.64754819  0.70794826  0.52499084    -0.89200
H2257       H  0.54607245  0.77218390  0.67753612     0.34900
H2258       H  0.53878873  0.80691123  0.63868448     0.40000
H2259       H  0.67175087  0.68999580  0.53553182     0.39700
H2260       H  0.65976579  0.72827137  0.00259509     0.34500
C2261       C  0.72981020  0.88641400  0.56539572    -0.27200
C2262       C  0.70824057  0.89062484  0.60454329    -0.15300
C2263       C  0.72923540  0.89598254  0.64385291     0.35400
C2264       C  0.77189494  0.89627525  0.64333183    -0.26600
C2265       C  0.79340940  0.89204118  0.60422968    -0.15900
C2266       C  0.77231952  0.88672738  0.56492732     0.36500
N2267       N  0.79391658  0.88019621  0.52486191    -0.90100
H2268       H  0.71357514  0.88192783  0.53522837     0.17600
H2269       H  0.78841529  0.90060673  0.67333248     0.17600
N2270       N  0.70716573  0.90189349  0.68384469    -0.89200
H2271       H  0.78519115  0.90272871  0.50301011     0.34900
H2272       H  0.78494034  0.85231951  0.51211772     0.40000
H2273       H  0.69112652  0.92917527  0.68132147     0.39700
H2274       H  0.72727439  0.90522293  0.70976535     0.34500
C2275       C  0.59541586  0.91757150  0.77340853    -0.27200
C2276       C  0.59989882  0.88025345  0.79436293    -0.15300
C2277       C  0.60508229  0.84487656  0.76953332     0.35400
C2278       C  0.60832545  0.84777899  0.72454660    -0.26600
C2279       C  0.60398594  0.88501047  0.70340947    -0.15900
C2280       C  0.59732336  0.92025182  0.72822016     0.36500
N2281       N  0.59516750  0.95914366  0.70816738    -0.90100
H2282       H  0.59210257  0.94514730  0.79215829     0.17600
H2283       H  0.61408690  0.82043466  0.70633242     0.17600
N2284       N  0.60605988  0.80582047  0.78956821    -0.89200
H2285       H  0.61820682  0.97676553  0.72161742     0.34900
H2286       H  0.56717642  0.97232064  0.71661719     0.40000
H2287       H  0.63359436  0.79175255  0.78106550     0.39700
H2288       H  0.58235058  0.78856847  0.77673319     0.34500
C2289       C  0.72576574  0.85649803  0.87862653    -0.27200
C2290       C  0.70257734  0.88974130  0.89195693    -0.15300
C2291       C  0.72317512  0.92595659  0.90301593     0.35400
C2292       C  0.76608419  0.92632501  0.90349874    -0.26600
C2293       C  0.78918842  0.89171346  0.89264871    -0.15900
C2294       C  0.76803217  0.85647175  0.87995218     0.36500
N2295       N  0.78842251  0.81947215  0.86943708    -0.90100
H2296       H  0.71170291  0.82891604  0.86809701     0.17600
H2297       H  0.78138106  0.95429228  0.91135319     0.17600
N2298       N  0.70098141  0.96264503  0.91199172    -0.89200
H2299       H  0.78137137  0.81194731  0.83735973     0.34900
H2300       H  0.77656177  0.79671893  0.88933129     0.40000
H2301       H  0.68585272  0.97101325  0.88360315     0.39700
H2302       H  0.72072568  0.98630124  0.91968803     0.34500
C2303       C  0.59196181  0.64253084  0.72539271    -0.27200
C2304       C  0.60893255  0.61041602  0.70184997    -0.15300
C2305       C  0.62733947  0.57786583  0.72373032     0.35400
C2306       C  0.62725644  0.57724336  0.76888655    -0.26600
C2307       C  0.61144536  0.60998804  0.79239608    -0.15900
C2308       C  0.59350395  0.64283135  0.77055026     0.36500
N2309       N  0.57588109  0.67627813  0.79345993    -0.90100
H2310       H  0.57795520  0.66764718  0.70870663     0.17600
H2311       H  0.64122574  0.55202388  0.78566617     0.17600
N2312       N  0.64910320  0.54692656  0.70084095    -0.89200
H2313       H  0.59874288  0.69041583  0.81138326     0.34900
H2314       H  0.55394935  0.66488676  0.81480231     0.40000
H2315       H  0.67307810  0.56099916  0.68438020     0.39700
H2316       H  0.62972527  0.53388128  0.67807518     0.34500
C2317       C  0.78080249  0.61567089  0.85795837    -0.27200
C2318       C  0.80024364  0.61591798  0.89822545    -0.15300
C2319       C  0.77632124  0.61259697  0.93662133     0.35400
C2320       C  0.73392213  0.61022547  0.93343521    -0.26600
C2321       C  0.71466363  0.60936426  0.89288201    -0.15900
C2322       C  0.73879681  0.61094770  0.85471760     0.36500
N2323       N  0.72234081  0.60482745  0.81228756    -0.90100
H2324       H  0.79837618  0.61824050  0.82836029     0.17600
H2325       H  0.71584674  0.60897595  0.96300726     0.17600
N2326       N  0.79356706  0.61296119  0.97924510    -0.89200
H2327       H  0.70357806  0.62893577  0.80385750     0.34900
H2328       H  0.70561203  0.57800873  0.81242434     0.40000
H2329       H  0.81562127  0.63555561  0.98103529     0.39700
H2330       H  0.80700298  0.58497887  0.48540568     0.34500
C2331       C  0.64785289  0.72359382  0.91046907    -0.27200
C2332       C  0.61239521  0.70133302  0.90371279    -0.15300
C2333       C  0.57455281  0.72112428  0.90056920     0.35400
C2334       C  0.57322483  0.76338773  0.90027154    -0.26600
C2335       C  0.60909357  0.78584209  0.90480107    -0.15900
C2336       C  0.64615706  0.76579513  0.91313376     0.36500
N2337       N  0.68135683  0.78821724  0.92613260    -0.90100
H2338       H  0.67661064  0.70792749  0.91491687     0.17600
H2339       H  0.54438203  0.77866808  0.89558667     0.17600
N2340       N  0.53779030  0.69838122  0.89601030    -0.89200
H2341       H  0.70600814  0.76886222  0.93174954     0.34900
H2342       H  0.67445287  0.80223646  0.95575407     0.40000
H2343       H  0.52405819  0.70719173  0.86703077     0.39700
H2344       H  0.51832686  0.70604502  0.92176698     0.34500
loop_ 
_geom_bond_atom_site_label_1 
_geom_bond_atom_site_label_2 
_geom_bond_distance 
_geom_bond_site_symmetry_2 
_ccdc_geom_bond_type 
O1            C9   1.271       .  A
O1        Co1486   1.983       .  S
O2           C10   1.272       .  A
O2        Co1194   1.992       .  S
O3           C11   1.272       .  A
O3         Co609   1.998       .  S
O4           C12   1.272       .  A
O4         Co903   1.995       .  S
O5           C11   1.250       .  A
O5          Co22   1.916       .  S
O6           C12   1.248       .  A
O6         Co314   1.911   1_455  S
O7           C10   1.253       .  A
O7         Co317   1.928   1_545  S
O8            C9   1.251       .  A
O8          Co23   1.925       .  S
C9          C114   1.466       .  S
C10          C30   1.475       .  S
C11          C78   1.475       .  S
C12          C42   1.470       .  S
O13          C26   1.273       .  A
O13         Co21   1.993   1_454  S
O14          C27   1.273       .  A
O14        Co315   1.998   1_554  S
O15          C28   1.275       .  A
O15        Co316   1.994   1_554  S
O16          C29   1.273       .  A
O16         Co24   1.996   1_544  S
O17          C29   1.253       .  A
O17       Co1487   1.903   1_554  S
O18          C28   1.250       .  A
O18       Co1193   1.903   1_554  S
O19          C26   1.256       .  A
O19        Co610   1.916   1_554  S
O20          C27   1.257       .  A
O20        Co902   1.916   1_554  S
Co21       O1466   1.983       .  S
Co21        O299   1.911   1_655  S
Co21       O1190   1.903   1_556  S
Co21        O318   1.943   1_656  S
Co22       O1174   1.992       .  S
Co22        O307   1.998       .  S
Co22       O1482   1.903       .  S
Co22       O1783   1.943       .  S
Co23        O589   1.998       .  S
Co23        O308   1.994       .  S
Co23        O899   1.916       .  S
Co23       O1197   1.949       .  S
Co24        O883   1.995       .  S
Co24        O300   1.928   1_565  S
Co24        O605   1.916   1_556  S
Co24        O904   1.951   1_566  S
O25        Co314   1.943   1_455  S
O25       Co1780   1.943       .  S
O25       Co1195   1.949   1_455  S
O25        Co903   1.951       .  S
C26          C54   1.475       .  S
C27          C90   1.479       .  S
C28         C102   1.464       .  S
C29          C66   1.471       .  S
C30          C31   1.544       .  S
C30          C36   1.523       .  S
C30          C34   1.524       .  S
C31          H38   1.086       .  S
C31          C32   1.367       .  D
C32          C33   1.536       .  S
C32         C270   1.481       .  S
C33          C37   1.537       .  S
C33          C35   1.531       .  S
C33          H39   1.107       .  S
C34          H40   1.087       .  S
C34          C35   1.352       .  D
C35         C281   1.463       .  S
C36          H41   1.087       .  S
C36          C37   1.360       .  D
C37         C256   1.460       .  S
C42          C43   1.538       .  S
C42          C48   1.521       .  S
C42          C46   1.523       .  S
C43          H50   1.087       .  S
C43          C44   1.358       .  D
C44          C45   1.539       .  S
C44         C284   1.474       .  S
C45          C49   1.537       .  S
C45          C47   1.547       .  S
C45          H51   1.102       .  S
C46          H52   1.083       .  S
C46          C47   1.360       .  D
C47         C239   1.491       .  S
C48          H53   1.087       .  S
C48          C49   1.361       .  D
C49         C225   1.471       .  S
C54          C55   1.540       .  S
C54          C60   1.529       .  S
C54          C58   1.523       .  S
C55          H62   1.087       .  S
C55          C56   1.356       .  D
C56          C57   1.528       .  S
C56         C211   1.466       .  S
C57          C61   1.537       .  S
C57          C59   1.533       .  S
C57          H63   1.110       .  S
C58          H64   1.087       .  S
C58          C59   1.354       .  D
C59         C200   1.455       .  S
C60          H65   1.085       .  S
C60          C61   1.367       .  D
C61         C228   1.475       .  S
C66          C67   1.540       .  S
C66          C72   1.531       .  S
C66          C70   1.520       .  S
C67          H74   1.087       .  S
C67          C68   1.350       .  D
C68          C69   1.532       .  S
C68         C197   1.462       .  S
C69          C73   1.529       .  S
C69          C71   1.540       .  S
C69          H75   1.112       .  S
C70          H76   1.087       .  S
C70          C71   1.357       .  D
C71         C183   1.463       .  S
C72          H77   1.086       .  S
C72          C73   1.363       .  D
C73         C253   1.461       .  S
C78          C79   1.545       .  S
C78          C84   1.518       .  S
C78          C82   1.525       .  S
C79          H86   1.087       .  S
C79          C80   1.361       .  D
C80          C81   1.533       .  S
C80         C172   1.472       .  S
C81          C85   1.542       .  S
C81          C83   1.542       .  S
C81          H87   1.111       .  S
C82          H88   1.082       .  S
C82          C83   1.358       .  D
C83         C267   1.480       .  S
C84          H89   1.087       .  S
C84          C85   1.356       .  D
C85         C155   1.457       .  S
C90          C91   1.537       .  S
C90          C96   1.528       .  S
C90          C94   1.529       .  S
C91          H98   1.087       .  S
C91          C92   1.350       .  D
C92          C93   1.535       .  S
C92         C186   1.467       .  S
C93          C97   1.528       .  S
C93          C95   1.542       .  S
C93          H99   1.110       .  S
C94         H100   1.082       .  S
C94          C95   1.367       .  D
C95         C144   1.482       .  S
C96         H101   1.086       .  S
C96          C97   1.360       .  D
C97         C158   1.454       .  S
C102        C103   1.548       .  S
C102        C108   1.519       .  S
C102        C106   1.519       .  S
C103        H110   1.086       .  S
C103        C104   1.364       .  D
C104        C105   1.532       .  S
C104        C141   1.480       .  S
C105        C109   1.530       .  S
C105        C107   1.534       .  S
C105        H111   1.105       .  S
C106        H112   1.087       .  S
C106        C107   1.357       .  D
C107        C214   1.463       .  S
C108        H113   1.086       .  S
C108        C109   1.354       .  D
C109        C127   1.454       .  S
C114        C115   1.544       .  S
C114        C120   1.517       .  S
C114        C118   1.525       .  S
C115        H122   1.085       .  S
C115        C116   1.374       .  D
C116        C117   1.544       .  S
C116        C242   1.498       .  S
C117        C121   1.532       .  S
C117        C119   1.534       .  S
C117        H123   1.101       .  S
C118        H124   1.087       .  S
C118        C119   1.351       .  D
C119        C169   1.464       .  S
C120        H125   1.087       .  S
C120        C121   1.352       .  D
C121        C130   1.458       .  S
C126        C127   1.397       .  A
C126        C131   1.388       .  A
C126        H133   1.085       .  S
C127        C128   1.410       .  A
C128        C129   1.391       .  A
C128        N135   1.433       .  S
C129        C130   1.402       .  A
C129        H134   1.084       .  S
C130        C131   1.403       .  A
C131        N132   1.431       .  S
N132        H136   1.045       .  S
N132        H137   1.046       .  S
N135        H138   1.045       .  S
N135        H139   1.045       .  S
C140        C141   1.408       .  A
C140        C145   1.401       .  A
C140        H147   1.084       .  S
C141        C142   1.412       .  A
C142        C143   1.384       .  A
C142        N149   1.433       .  S
C143        C144   1.396       .  A
C143        H148   1.072       .  S
C144        C145   1.418       .  A
C145        N146   1.434       .  S
N146        H150   1.041       .  S
N146        H151   1.046       .  S
N149        H152   1.048       .  S
N149        H153   1.037       .  S
C154        C155   1.397       .  A
C154        C159   1.396       .  A
C154        H161   1.081       .  S
C155        C156   1.407       .  A
C156        C157   1.400       .  A
C156        N163   1.438       .  S
C157        C158   1.399       .  A
C157        H162   1.084       .  S
C158        C159   1.404       .  A
C159        N160   1.438       .  S
N160        H164   1.046       .  S
N160        H165   1.045       .  S
N163        H166   1.045       .  S
N163        H167   1.046       .  S
C168        C169   1.397       .  A
C168        C173   1.399       .  A
C168        H175   1.081       .  S
C169        C170   1.414       .  A
C170        C171   1.399       .  A
C170        N177   1.440       .  S
C171        C172   1.399       .  A
C171        H176   1.077       .  S
C172        C173   1.405       .  A
C173        N174   1.436       .  S
N174        H178   1.045       .  S
N174        H179   1.045       .  S
N177        H180   1.042       .  S
N177        H181   1.045       .  S
C182        C183   1.396       .  A
C182        C187   1.391       .  A
C182        H189   1.081       .  S
C183        C184   1.421       .  A
C184        C185   1.398       .  A
C184        N191   1.440       .  S
C185        C186   1.400       .  A
C185        H190   1.084       .  S
C186        C187   1.403       .  A
C187        N188   1.433       .  S
N188        H192   1.045       .  S
N188        H193   1.044       .  S
N191        H194   1.042       .  S
N191        H195   1.044       .  S
C196        C197   1.398       .  A
C196        C201   1.397       .  A
C196        H203   1.081       .  S
C197        C198   1.409       .  A
C198        C199   1.400       .  A
C198        N205   1.438       .  S
C199        C200   1.398       .  A
C199        H204   1.084       .  S
C200        C201   1.404       .  A
C201        N202   1.437       .  S
N202        H206   1.045       .  S
N202        H207   1.046       .  S
N205        H208   1.044       .  S
N205        H502   1.043       .  S
H209        N498   1.042       .  S
C210        C211   1.400       .  A
C210        C215   1.394       .  A
C210        H217   1.084       .  S
C211        C212   1.408       .  A
C212        C213   1.399       .  A
C212        N219   1.437       .  S
C213        C214   1.398       .  A
C213        H218   1.084       .  S
C214        C215   1.410       .  A
C215        N216   1.434       .  S
N216        H220   1.046       .  S
N216        H221   1.046       .  S
N219        H222   1.046       .  S
N219        H223   1.045       .  S
C224        C225   1.402       .  A
C224        C229   1.396       .  A
C224        H231   1.084       .  S
C225        C226   1.406       .  A
C226        C227   1.393       .  A
C226        N233   1.433       .  S
C227        C228   1.401       .  A
C227        H232   1.079       .  S
C228        C229   1.409       .  A
C229        N230   1.430       .  S
N230        H234   1.043       .  S
N230        H235   1.046       .  S
N233        H236   1.046       .  S
N233        H237   1.046       .  S
C238        C239   1.395       .  A
C238        C243   1.387       .  A
C238        H245   1.074       .  S
C239        C240   1.420       .  A
C240        C241   1.408       .  A
C240        N247   1.439       .  S
C241        C242   1.409       .  A
C241        H246   1.082       .  S
C242        C243   1.415       .  A
C243        N244   1.429       .  S
N244        H248   1.046       .  S
N244        H249   1.046       .  S
N247        H250   1.046       .  S
N247        H251   1.045       .  S
C252        C253   1.397       .  A
C252        C257   1.392       .  A
C252        H259   1.081       .  S
C253        C254   1.408       .  A
C254        C255   1.391       .  A
C254        N261   1.428       .  S
C255        C256   1.398       .  A
C255        H260   1.084       .  S
C256        C257   1.408       .  A
C257        N258   1.430       .  S
N258        H262   1.045       .  S
N258        H263   1.043       .  S
N261        H264   1.044       .  S
N261        H265   1.044       .  S
C266        C267   1.399       .  A
C266        C271   1.391       .  A
C266        H273   1.079       .  S
C267        C268   1.419       .  A
C268        C269   1.397       .  A
C268        N275   1.433       .  S
C269        C270   1.404       .  A
C269        H274   1.084       .  S
C270        C271   1.414       .  A
C271        N272   1.432       .  S
N272        H276   1.039       .  S
N272        H277   1.045       .  S
N275        H278   1.044       .  S
N275        H572   1.042       .  S
H279        N568   1.042       .  S
C280        C281   1.395       .  A
C280        C285   1.399       .  A
C280        H287   1.084       .  S
C281        C282   1.405       .  A
C282        C283   1.399       .  A
C282        N289   1.431       .  S
C283        C284   1.401       .  A
C283        H288   1.082       .  S
C284        C285   1.408       .  A
C285        N286   1.433       .  S
N286        H290   1.045       .  S
N286        H291   1.046       .  S
N289        H292   1.044       .  S
N289        H293   1.045       .  S
O294        C302   1.271       .  A
O294      Co1193   1.983       .  S
O295        C303   1.272       .  A
O295      Co1487   1.992       .  S
O296        C304   1.272       .  A
O296       Co902   1.998       .  S
O297        C305   1.272       .  A
O297       Co610   1.995       .  S
O298        C304   1.250       .  A
O298       Co315   1.916       .  S
O299        C305   1.248       .  A
O300        C303   1.253       .  A
O301        C302   1.251       .  A
O301       Co316   1.925       .  S
C302        C407   1.466       .  S
C303        C323   1.475       .  S
C304        C371   1.475       .  S
C305        C335   1.470       .  S
O306        C319   1.273       .  A
O306       Co314   1.993   1_455  S
O307        C320   1.273       .  A
O308        C321   1.275       .  A
O309        C322   1.273       .  A
O309       Co317   1.996   1_545  S
O310        C322   1.253       .  A
O310      Co1194   1.903       .  S
O311        C321   1.250       .  A
O311      Co1486   1.903       .  S
O312        C319   1.256       .  A
O312       Co903   1.916       .  S
O313        C320   1.257       .  A
O313       Co609   1.916       .  S
Co314      O1173   1.983       .  S
Co314      O1483   1.903       .  S
Co315      O1467   1.992       .  S
Co315      O1189   1.903   1_556  S
Co315      O2076   1.943   1_556  S
Co316       O882   1.998       .  S
Co316       O606   1.916   1_556  S
Co316      O1490   1.949   1_556  S
Co317       O590   1.995       .  S
Co317       O898   1.916       .  S
Co317       O611   1.951   1_565  S
O318      Co2073   1.943   1_554  S
O318      Co1488   1.949   1_454  S
O318       Co610   1.951   1_554  S
C319        C347   1.475       .  S
C320        C383   1.479       .  S
C321        C395   1.464       .  S
C322        C359   1.471       .  S
C323        C324   1.544       .  S
C323        C329   1.523       .  S
C323        C327   1.524       .  S
C324        H331   1.086       .  S
C324        C325   1.367       .  D
C325        C326   1.536       .  S
C325        C563   1.481       .  S
C326        C330   1.537       .  S
C326        C328   1.531       .  S
C326        H332   1.107       .  S
C327        H333   1.087       .  S
C327        C328   1.352       .  D
C328        C574   1.463       .  S
C329        H334   1.087       .  S
C329        C330   1.360       .  D
C330        C549   1.460       .  S
C335        C336   1.538       .  S
C335        C341   1.521       .  S
C335        C339   1.523       .  S
C336        H343   1.087       .  S
C336        C337   1.358       .  D
C337        C338   1.539       .  S
C337        C577   1.474       .  S
C338        C342   1.537       .  S
C338        C340   1.547       .  S
C338        H344   1.102       .  S
C339        H345   1.083       .  S
C339        C340   1.360       .  D
C340        C532   1.491       .  S
C341        H346   1.087       .  S
C341        C342   1.361       .  D
C342        C518   1.471       .  S
C347        C348   1.540       .  S
C347        C353   1.529       .  S
C347        C351   1.523       .  S
C348        H355   1.087       .  S
C348        C349   1.356       .  D
C349        C350   1.528       .  S
C349        C504   1.466       .  S
C350        C354   1.537       .  S
C350        C352   1.533       .  S
C350        H356   1.110       .  S
C351        H357   1.087       .  S
C351        C352   1.354       .  D
C352        C493   1.455       .  S
C353        H358   1.085       .  S
C353        C354   1.367       .  D
C354        C521   1.475       .  S
C359        C360   1.540       .  S
C359        C365   1.531       .  S
C359        C363   1.520       .  S
C360        H367   1.087       .  S
C360        C361   1.350       .  D
C361        C362   1.532       .  S
C361        C490   1.462       .  S
C362        C366   1.529       .  S
C362        C364   1.540       .  S
C362        H368   1.112       .  S
C363        H369   1.087       .  S
C363        C364   1.357       .  D
C364        C476   1.463       .  S
C365        H370   1.086       .  S
C365        C366   1.363       .  D
C366        C546   1.461       .  S
C371        C372   1.545       .  S
C371        C377   1.518       .  S
C371        C375   1.525       .  S
C372        H379   1.087       .  S
C372        C373   1.361       .  D
C373        C374   1.533       .  S
C373        C465   1.472       .  S
C374        C378   1.542       .  S
C374        C376   1.542       .  S
C374        H380   1.111       .  S
C375        H381   1.082       .  S
C375        C376   1.358       .  D
C376        C560   1.480       .  S
C377        H382   1.087       .  S
C377        C378   1.356       .  D
C378        C448   1.457       .  S
C383        C384   1.537       .  S
C383        C389   1.528       .  S
C383        C387   1.529       .  S
C384        H391   1.087       .  S
C384        C385   1.350       .  D
C385        C386   1.535       .  S
C385        C479   1.467       .  S
C386        C390   1.528       .  S
C386        C388   1.542       .  S
C386        H392   1.110       .  S
C387        H393   1.082       .  S
C387        C388   1.367       .  D
C388        C437   1.482       .  S
C389        H394   1.086       .  S
C389        C390   1.360       .  D
C390        C451   1.454       .  S
C395        C396   1.548       .  S
C395        C401   1.519       .  S
C395        C399   1.519       .  S
C396        H403   1.086       .  S
C396        C397   1.364       .  D
C397        C398   1.532       .  S
C397        C434   1.480       .  S
C398        C402   1.530       .  S
C398        C400   1.534       .  S
C398        H404   1.105       .  S
C399        H405   1.087       .  S
C399        C400   1.357       .  D
C400        C507   1.463       .  S
C401        H406   1.086       .  S
C401        C402   1.354       .  D
C402        C420   1.454       .  S
C407        C408   1.544       .  S
C407        C413   1.517       .  S
C407        C411   1.525       .  S
C408        H415   1.085       .  S
C408        C409   1.374       .  D
C409        C410   1.544       .  S
C409        C535   1.498       .  S
C410        C414   1.532       .  S
C410        C412   1.534       .  S
C410        H416   1.101       .  S
C411        H417   1.087       .  S
C411        C412   1.351       .  D
C412        C462   1.464       .  S
C413        H418   1.087       .  S
C413        C414   1.352       .  D
C414        C423   1.458       .  S
C419        C420   1.397       .  A
C419        C424   1.388       .  A
C419        H426   1.085       .  S
C420        C421   1.410       .  A
C421        C422   1.391       .  A
C421        N428   1.433       .  S
C422        C423   1.402       .  A
C422        H427   1.084       .  S
C423        C424   1.403       .  A
C424        N425   1.431       .  S
N425        H429   1.045       .  S
N425        H430   1.046       .  S
N428        H431   1.045       .  S
N428        H432   1.045       .  S
C433        C434   1.408       .  A
C433        C438   1.401       .  A
C433        H440   1.084       .  S
C434        C435   1.412       .  A
C435        C436   1.384       .  A
C435        N442   1.433       .  S
C436        C437   1.396       .  A
C436        H441   1.072       .  S
C437        C438   1.418       .  A
C438        N439   1.434       .  S
N439        H443   1.042       .  S
N439        H444   1.046       .  S
N442        H445   1.047       .  S
N442        H446   1.038       .  S
C447        C448   1.397       .  A
C447        C452   1.396       .  A
C447        H454   1.081       .  S
C448        C449   1.407       .  A
C449        C450   1.400       .  A
C449        N456   1.438       .  S
C450        C451   1.399       .  A
C450        H455   1.084       .  S
C451        C452   1.404       .  A
C452        N453   1.438       .  S
N453        H457   1.046       .  S
N453        H458   1.045       .  S
N456        H459   1.045       .  S
N456        H460   1.046       .  S
C461        C462   1.397       .  A
C461        C466   1.399       .  A
C461        H468   1.081       .  S
C462        C463   1.414       .  A
C463        C464   1.399       .  A
C463        N470   1.440       .  S
C464        C465   1.399       .  A
C464        H469   1.077       .  S
C465        C466   1.405       .  A
C466        N467   1.436       .  S
N467        H471   1.045       .  S
N467        H472   1.045       .  S
N470        H473   1.041       .  S
N470        H474   1.045       .  S
C475        C476   1.396       .  A
C475        C480   1.391       .  A
C475        H482   1.081       .  S
C476        C477   1.421       .  A
C477        C478   1.398       .  A
C477        N484   1.440       .  S
C478        C479   1.400       .  A
C478        H483   1.084       .  S
C479        C480   1.403       .  A
C480        N481   1.433       .  S
N481        H485   1.045       .  S
N481        H486   1.044       .  S
N484        H487   1.042       .  S
N484        H488   1.044       .  S
C489        C490   1.398       .  A
C489        C494   1.397       .  A
C489        H496   1.081       .  S
C490        C491   1.409       .  A
C491        C492   1.400       .  A
C491        N498   1.438       .  S
C492        C493   1.398       .  A
C492        H497   1.084       .  S
C493        C494   1.404       .  A
C494        N495   1.437       .  S
N495        H499   1.045       .  S
N495        H500   1.046       .  S
N498        H501   1.044       .  S
C503        C504   1.400       .  A
C503        C508   1.394       .  A
C503        H510   1.084       .  S
C504        C505   1.408       .  A
C505        C506   1.399       .  A
C505        N512   1.437       .  S
C506        C507   1.398       .  A
C506        H511   1.084       .  S
C507        C508   1.410       .  A
C508        N509   1.434       .  S
N509        H513   1.046       .  S
N509        H514   1.046       .  S
N512        H515   1.046       .  S
N512        H516   1.045       .  S
C517        C518   1.402       .  A
C517        C522   1.396       .  A
C517        H524   1.084       .  S
C518        C519   1.406       .  A
C519        C520   1.393       .  A
C519        N526   1.433       .  S
C520        C521   1.401       .  A
C520        H525   1.079       .  S
C521        C522   1.409       .  A
C522        N523   1.430       .  S
N523        H527   1.043       .  S
N523        H528   1.046       .  S
N526        H529   1.046       .  S
N526        H530   1.046       .  S
C531        C532   1.395       .  A
C531        C536   1.387       .  A
C531        H538   1.074       .  S
C532        C533   1.420       .  A
C533        C534   1.408       .  A
C533        N540   1.439       .  S
C534        C535   1.409       .  A
C534        H539   1.082       .  S
C535        C536   1.415       .  A
C536        N537   1.429       .  S
N537        H541   1.046       .  S
N537        H542   1.046       .  S
N540        H543   1.046       .  S
N540        H544   1.045       .  S
C545        C546   1.397       .  A
C545        C550   1.392       .  A
C545        H552   1.081       .  S
C546        C547   1.408       .  A
C547        C548   1.391       .  A
C547        N554   1.428       .  S
C548        C549   1.398       .  A
C548        H553   1.084       .  S
C549        C550   1.408       .  A
C550        N551   1.430       .  S
N551        H555   1.046       .  S
N551        H556   1.043       .  S
N554        H557   1.044       .  S
N554        H558   1.043       .  S
C559        C560   1.399       .  A
C559        C564   1.391       .  A
C559        H566   1.079       .  S
C560        C561   1.419       .  A
C561        C562   1.397       .  A
C561        N568   1.433       .  S
C562        C563   1.404       .  A
C562        H567   1.084       .  S
C563        C564   1.414       .  A
C564        N565   1.432       .  S
N565        H569   1.040       .  S
N565        H570   1.044       .  S
N568        H571   1.044       .  S
C573        C574   1.395       .  A
C573        C578   1.399       .  A
C573        H580   1.084       .  S
C574        C575   1.405       .  A
C575        C576   1.399       .  A
C575        N582   1.431       .  S
C576        C577   1.401       .  A
C576        H581   1.082       .  S
C577        C578   1.408       .  A
C578        N579   1.433       .  S
N579        H583   1.045       .  S
N579        H584   1.046       .  S
N582        H585   1.044       .  S
N582        H586   1.045       .  S
O587        C595   1.271       .  A
O587      Co2072   1.983       .  S
O588        C596   1.272       .  A
O588      Co1780   1.992       .  S
O589        C597   1.272       .  A
O590        C598   1.272       .  A
O591        C597   1.250       .  A
O591       Co608   1.916       .  S
O592        C598   1.248       .  A
O592       Co900   1.911   1_455  S
O593        C596   1.253       .  A
O593       Co903   1.928       .  S
O594        C595   1.251       .  A
O594       Co609   1.925   1_565  S
C595        C700   1.466       .  S
C596        C616   1.475       .  S
C597        C664   1.475       .  S
C598        C628   1.470       .  S
O599        C612   1.273       .  A
O599       Co607   1.993   1_454  S
O600        C613   1.273       .  A
O600       Co901   1.998   1_554  S
O601        C614   1.275       .  A
O601       Co902   1.994   1_564  S
O602        C615   1.273       .  A
O602       Co610   1.996   1_554  S
O603        C615   1.253       .  A
O603      Co2073   1.903   1_554  S
O604        C614   1.250       .  A
O604      Co1779   1.903   1_554  S
O605        C612   1.256       .  A
O606        C613   1.257       .  A
Co607      O2052   1.983       .  S
Co607       O885   1.911   1_655  S
Co607      O1776   1.903   1_556  S
Co607       O904   1.943   1_666  S
Co608      O1760   1.992       .  S
Co608       O893   1.998       .  S
Co608      O2068   1.903       .  S
Co608      O1197   1.943       .  S
Co609       O894   1.994   1_545  S
Co609      O1783   1.949       .  S
Co610       O886   1.928       .  S
O611       Co900   1.943   1_445  S
O611      Co1194   1.943       .  S
O611      Co1781   1.949   1_455  S
C612        C640   1.475       .  S
C613        C676   1.479       .  S
C614        C688   1.464       .  S
C615        C652   1.471       .  S
C616        C617   1.544       .  S
C616        C622   1.523       .  S
C616        C620   1.524       .  S
C617        H624   1.086       .  S
C617        C618   1.367       .  D
C618        C619   1.536       .  S
C618        C856   1.481       .  S
C619        C623   1.537       .  S
C619        C621   1.531       .  S
C619        H625   1.107       .  S
C620        H626   1.087       .  S
C620        C621   1.352       .  D
C621        C867   1.463       .  S
C622        H627   1.087       .  S
C622        C623   1.360       .  D
C623        C842   1.460       .  S
C628        C629   1.538       .  S
C628        C634   1.521       .  S
C628        C632   1.523       .  S
C629        H636   1.087       .  S
C629        C630   1.358       .  D
C630        C631   1.539       .  S
C630        C870   1.474       .  S
C631        C635   1.537       .  S
C631        C633   1.547       .  S
C631        H637   1.102       .  S
C632        H638   1.083       .  S
C632        C633   1.360       .  D
C633        C825   1.491       .  S
C634        H639   1.087       .  S
C634        C635   1.361       .  D
C635        C811   1.471       .  S
C640        C641   1.540       .  S
C640        C646   1.529       .  S
C640        C644   1.523       .  S
C641        H648   1.087       .  S
C641        C642   1.356       .  D
C642        C643   1.528       .  S
C642        C797   1.466       .  S
C643        C647   1.537       .  S
C643        C645   1.533       .  S
C643        H649   1.110       .  S
C644        H650   1.087       .  S
C644        C645   1.354       .  D
C645        C786   1.455       .  S
C646        H651   1.085       .  S
C646        C647   1.367       .  D
C647        C814   1.475       .  S
C652        C653   1.540       .  S
C652        C658   1.531       .  S
C652        C656   1.520       .  S
C653        H660   1.087       .  S
C653        C654   1.350       .  D
C654        C655   1.532       .  S
C654        C783   1.461       .  S
C655        C659   1.529       .  S
C655        C657   1.540       .  S
C655        H661   1.112       .  S
C656        H662   1.087       .  S
C656        C657   1.357       .  D
C657        C769   1.463       .  S
C658        H663   1.086       .  S
C658        C659   1.363       .  D
C659        C839   1.461       .  S
C664        C665   1.545       .  S
C664        C670   1.518       .  S
C664        C668   1.525       .  S
C665        H672   1.087       .  S
C665        C666   1.361       .  D
C666        C667   1.533       .  S
C666        C758   1.472       .  S
C667        C671   1.542       .  S
C667        C669   1.542       .  S
C667        H673   1.111       .  S
C668        H674   1.082       .  S
C668        C669   1.358       .  D
C669        C853   1.480       .  S
C670        H675   1.087       .  S
C670        C671   1.356       .  D
C671        C741   1.457       .  S
C676        C677   1.537       .  S
C676        C682   1.528       .  S
C676        C680   1.529       .  S
C677        H684   1.087       .  S
C677        C678   1.350       .  D
C678        C679   1.535       .  S
C678        C772   1.467       .  S
C679        C683   1.528       .  S
C679        C681   1.542       .  S
C679        H685   1.110       .  S
C680        H686   1.082       .  S
C680        C681   1.367       .  D
C681        C730   1.482       .  S
C682        H687   1.086       .  S
C682        C683   1.360       .  D
C683        C744   1.454       .  S
C688        C689   1.548       .  S
C688        C694   1.519       .  S
C688        C692   1.519       .  S
C689        H696   1.086       .  S
C689        C690   1.364       .  D
C690        C691   1.532       .  S
C690        C727   1.480       .  S
C691        C695   1.530       .  S
C691        C693   1.534       .  S
C691        H697   1.105       .  S
C692        H698   1.087       .  S
C692        C693   1.357       .  D
C693        C800   1.463       .  S
C694        H699   1.086       .  S
C694        C695   1.354       .  D
C695        C713   1.454       .  S
C700        C701   1.544       .  S
C700        C706   1.517       .  S
C700        C704   1.525       .  S
C701        H708   1.085       .  S
C701        C702   1.374       .  D
C702        C703   1.544       .  S
C702        C828   1.498       .  S
C703        C707   1.532       .  S
C703        C705   1.534       .  S
C703        H709   1.101       .  S
C704        H710   1.087       .  S
C704        C705   1.351       .  D
C705        C755   1.464       .  S
C706        H711   1.087       .  S
C706        C707   1.352       .  D
C707        C716   1.458       .  S
C712        C713   1.397       .  A
C712        C717   1.388       .  A
C712        H719   1.085       .  S
C713        C714   1.410       .  A
C714        C715   1.391       .  A
C714        N721   1.433       .  S
C715        C716   1.402       .  A
C715        H720   1.084       .  S
C716        C717   1.403       .  A
C717        N718   1.431       .  S
N718        H722   1.045       .  S
N718        H723   1.045       .  S
N721        H724   1.045       .  S
N721        H725   1.045       .  S
C726        C727   1.408       .  A
C726        C731   1.401       .  A
C726        H733   1.084       .  S
C727        C728   1.412       .  A
C728        C729   1.384       .  A
C728        N735   1.433       .  S
C729        C730   1.396       .  A
C729        H734   1.072       .  S
C730        C731   1.418       .  A
C731        N732   1.434       .  S
N732        H736   1.041       .  S
N732        H737   1.046       .  S
N735        H738   1.048       .  S
N735        H739   1.037       .  S
C740        C741   1.397       .  A
C740        C745   1.396       .  A
C740        H747   1.081       .  S
C741        C742   1.407       .  A
C742        C743   1.400       .  A
C742        N749   1.438       .  S
C743        C744   1.399       .  A
C743        H748   1.084       .  S
C744        C745   1.404       .  A
C745        N746   1.438       .  S
N746        H750   1.046       .  S
N746        H751   1.045       .  S
N749        H752   1.045       .  S
N749        H753   1.046       .  S
C754        C755   1.397       .  A
C754        C759   1.399       .  A
C754        H761   1.081       .  S
C755        C756   1.414       .  A
C756        C757   1.399       .  A
C756        N763   1.440       .  S
C757        C758   1.399       .  A
C757        H762   1.077       .  S
C758        C759   1.405       .  A
C759        N760   1.436       .  S
N760        H764   1.046       .  S
N760        H765   1.044       .  S
N763        H766   1.042       .  S
N763        H767   1.045       .  S
C768        C769   1.396       .  A
C768        C773   1.391       .  A
C768        H775   1.081       .  S
C769        C770   1.421       .  A
C770        C771   1.398       .  A
C770        N777   1.440       .  S
C771        C772   1.400       .  A
C771        H776   1.084       .  S
C772        C773   1.403       .  A
C773        N774   1.433       .  S
N774        H778   1.045       .  S
N774        H779   1.044       .  S
N777        H780   1.042       .  S
N777        H781   1.044       .  S
C782        C783   1.398       .  A
C782        C787   1.397       .  A
C782        H789   1.081       .  S
C783        C784   1.409       .  A
C784        C785   1.400       .  A
C784        N791   1.438       .  S
C785        C786   1.398       .  A
C785        H790   1.084       .  S
C786        C787   1.404       .  A
C787        N788   1.437       .  S
N788        H792   1.045       .  S
N788        H793   1.046       .  S
N791        H794   1.043       .  S
N791       H1088   1.043       .  S
H795       N1084   1.043       .  S
C796        C797   1.400       .  A
C796        C801   1.394       .  A
C796        H803   1.084       .  S
C797        C798   1.408       .  A
C798        C799   1.399       .  A
C798        N805   1.437       .  S
C799        C800   1.398       .  A
C799        H804   1.084       .  S
C800        C801   1.410       .  A
C801        N802   1.434       .  S
N802        H806   1.046       .  S
N802        H807   1.046       .  S
N805        H808   1.046       .  S
N805        H809   1.045       .  S
C810        C811   1.402       .  A
C810        C815   1.396       .  A
C810        H817   1.084       .  S
C811        C812   1.406       .  A
C812        C813   1.393       .  A
C812        N819   1.433       .  S
C813        C814   1.401       .  A
C813        H818   1.079       .  S
C814        C815   1.409       .  A
C815        N816   1.430       .  S
N816        H820   1.043       .  S
N816        H821   1.046       .  S
N819        H822   1.046       .  S
N819        H823   1.046       .  S
C824        C825   1.395       .  A
C824        C829   1.387       .  A
C824        H831   1.074       .  S
C825        C826   1.420       .  A
C826        C827   1.408       .  A
C826        N833   1.439       .  S
C827        C828   1.409       .  A
C827        H832   1.082       .  S
C828        C829   1.415       .  A
C829        N830   1.429       .  S
N830        H834   1.046       .  S
N830        H835   1.046       .  S
N833        H836   1.046       .  S
N833        H837   1.045       .  S
C838        C839   1.397       .  A
C838        C843   1.392       .  A
C838        H845   1.081       .  S
C839        C840   1.408       .  A
C840        C841   1.391       .  A
C840        N847   1.428       .  S
C841        C842   1.398       .  A
C841        H846   1.084       .  S
C842        C843   1.408       .  A
C843        N844   1.430       .  S
N844        H848   1.045       .  S
N844        H849   1.043       .  S
N847        H850   1.044       .  S
N847        H851   1.044       .  S
C852        C853   1.399       .  A
C852        C857   1.391       .  A
C852        H859   1.079       .  S
C853        C854   1.419       .  A
C854        C855   1.397       .  A
C854        N861   1.433       .  S
C855        C856   1.404       .  A
C855        H860   1.084       .  S
C856        C857   1.414       .  A
C857        N858   1.432       .  S
N858        H862   1.040       .  S
N858        H863   1.045       .  S
N861        H864   1.044       .  S
N861       H1158   1.042       .  S
H865       N1154   1.042       .  S
C866        C867   1.395       .  A
C866        C871   1.399       .  A
C866        H873   1.084       .  S
C867        C868   1.405       .  A
C868        C869   1.399       .  A
C868        N875   1.431       .  S
C869        C870   1.401       .  A
C869        H874   1.082       .  S
C870        C871   1.408       .  A
C871        N872   1.433       .  S
N872        H876   1.045       .  S
N872        H877   1.046       .  S
N875        H878   1.044       .  S
N875        H879   1.045       .  S
O880        C888   1.271       .  A
O880      Co1779   1.983       .  S
O881        C889   1.272       .  A
O881      Co2073   1.992       .  S
O882        C890   1.272       .  A
O883        C891   1.272       .  A
O884        C890   1.250       .  A
O884       Co901   1.916       .  S
O885        C891   1.248       .  A
O886        C889   1.253       .  A
O887        C888   1.251       .  A
O887       Co902   1.925   1_565  S
C888        C993   1.466       .  S
C889        C909   1.475       .  S
C890        C957   1.475       .  S
C891        C921   1.470       .  S
O892        C905   1.273       .  A
O892       Co900   1.993   1_455  S
O893        C906   1.273       .  A
O894        C907   1.275       .  A
O895        C908   1.273       .  A
O895       Co903   1.996       .  S
O896        C908   1.253       .  A
O896      Co1780   1.903       .  S
O897        C907   1.250       .  A
O897      Co2072   1.903       .  S
O898        C905   1.256       .  A
O899        C906   1.257       .  A
Co900      O1759   1.983       .  S
Co900      O2069   1.903       .  S
Co901      O2053   1.992       .  S
Co901      O1775   1.903   1_556  S
Co901      O1490   1.943   1_556  S
Co902      O2076   1.949   1_556  S
O904      Co1487   1.943   1_554  S
O904      Co2074   1.949   1_454  S
C905        C933   1.475       .  S
C906        C969   1.479       .  S
C907        C981   1.464       .  S
C908        C945   1.471       .  S
C909        C910   1.544       .  S
C909        C915   1.523       .  S
C909        C913   1.524       .  S
C910        H917   1.086       .  S
C910        C911   1.367       .  D
C911        C912   1.536       .  S
C911       C1149   1.481       .  S
C912        C916   1.537       .  S
C912        C914   1.531       .  S
C912        H918   1.107       .  S
C913        H919   1.087       .  S
C913        C914   1.352       .  D
C914       C1160   1.463       .  S
C915        H920   1.087       .  S
C915        C916   1.360       .  D
C916       C1135   1.460       .  S
C921        C922   1.538       .  S
C921        C927   1.521       .  S
C921        C925   1.523       .  S
C922        H929   1.087       .  S
C922        C923   1.358       .  D
C923        C924   1.539       .  S
C923       C1163   1.474       .  S
C924        C928   1.537       .  S
C924        C926   1.547       .  S
C924        H930   1.102       .  S
C925        H931   1.083       .  S
C925        C926   1.360       .  D
C926       C1118   1.491       .  S
C927        H932   1.087       .  S
C927        C928   1.361       .  D
C928       C1104   1.471       .  S
C933        C934   1.540       .  S
C933        C939   1.529       .  S
C933        C937   1.523       .  S
C934        H941   1.087       .  S
C934        C935   1.356       .  D
C935        C936   1.528       .  S
C935       C1090   1.466       .  S
C936        C940   1.537       .  S
C936        C938   1.533       .  S
C936        H942   1.110       .  S
C937        H943   1.087       .  S
C937        C938   1.354       .  D
C938       C1079   1.455       .  S
C939        H944   1.085       .  S
C939        C940   1.367       .  D
C940       C1107   1.475       .  S
C945        C946   1.540       .  S
C945        C951   1.531       .  S
C945        C949   1.520       .  S
C946        H953   1.087       .  S
C946        C947   1.350       .  D
C947        C948   1.532       .  S
C947       C1076   1.461       .  S
C948        C952   1.529       .  S
C948        C950   1.540       .  S
C948        H954   1.112       .  S
C949        H955   1.087       .  S
C949        C950   1.357       .  D
C950       C1062   1.463       .  S
C951        H956   1.086       .  S
C951        C952   1.363       .  D
C952       C1132   1.461       .  S
C957        C958   1.545       .  S
C957        C963   1.518       .  S
C957        C961   1.525       .  S
C958        H965   1.087       .  S
C958        C959   1.361       .  D
C959        C960   1.533       .  S
C959       C1051   1.472       .  S
C960        C964   1.542       .  S
C960        C962   1.542       .  S
C960        H966   1.111       .  S
C961        H967   1.082       .  S
C961        C962   1.358       .  D
C962       C1146   1.480       .  S
C963        H968   1.087       .  S
C963        C964   1.356       .  D
C964       C1034   1.457       .  S
C969        C970   1.537       .  S
C969        C975   1.528       .  S
C969        C973   1.529       .  S
C970        H977   1.087       .  S
C970        C971   1.350       .  D
C971        C972   1.535       .  S
C971       C1065   1.467       .  S
C972        C976   1.528       .  S
C972        C974   1.542       .  S
C972        H978   1.110       .  S
C973        H979   1.082       .  S
C973        C974   1.367       .  D
C974       C1023   1.482       .  S
C975        H980   1.086       .  S
C975        C976   1.360       .  D
C976       C1037   1.454       .  S
C981        C982   1.548       .  S
C981        C987   1.519       .  S
C981        C985   1.519       .  S
C982        H989   1.086       .  S
C982        C983   1.364       .  D
C983        C984   1.532       .  S
C983       C1020   1.480       .  S
C984        C988   1.530       .  S
C984        C986   1.534       .  S
C984        H990   1.105       .  S
C985        H991   1.087       .  S
C985        C986   1.357       .  D
C986       C1093   1.463       .  S
C987        H992   1.086       .  S
C987        C988   1.354       .  D
C988       C1006   1.454       .  S
C993        C994   1.544       .  S
C993        C999   1.517       .  S
C993        C997   1.525       .  S
C994       H1001   1.085       .  S
C994        C995   1.374       .  D
C995        C996   1.544       .  S
C995       C1121   1.498       .  S
C996       C1000   1.532       .  S
C996        C998   1.534       .  S
C996       H1002   1.101       .  S
C997       H1003   1.087       .  S
C997        C998   1.351       .  D
C998       C1048   1.464       .  S
C999       H1004   1.087       .  S
C999       C1000   1.352       .  D
C1000      C1009   1.458       .  S
C1005      C1006   1.397       .  A
C1005      C1010   1.388       .  A
C1005      H1012   1.085       .  S
C1006      C1007   1.410       .  A
C1007      C1008   1.391       .  A
C1007      N1014   1.433       .  S
C1008      C1009   1.402       .  A
C1008      H1013   1.084       .  S
C1009      C1010   1.403       .  A
C1010      N1011   1.431       .  S
N1011      H1015   1.045       .  S
N1011      H1016   1.046       .  S
N1014      H1017   1.045       .  S
N1014      H1018   1.045       .  S
C1019      C1020   1.408       .  A
C1019      C1024   1.401       .  A
C1019      H1026   1.084       .  S
C1020      C1021   1.412       .  A
C1021      C1022   1.384       .  A
C1021      N1028   1.433       .  S
C1022      C1023   1.396       .  A
C1022      H1027   1.072       .  S
C1023      C1024   1.418       .  A
C1024      N1025   1.434       .  S
N1025      H1029   1.042       .  S
N1025      H1030   1.046       .  S
N1028      H1031   1.048       .  S
N1028      H1032   1.037       .  S
C1033      C1034   1.397       .  A
C1033      C1038   1.396       .  A
C1033      H1040   1.081       .  S
C1034      C1035   1.407       .  A
C1035      C1036   1.400       .  A
C1035      N1042   1.438       .  S
C1036      C1037   1.399       .  A
C1036      H1041   1.084       .  S
C1037      C1038   1.404       .  A
C1038      N1039   1.438       .  S
N1039      H1043   1.046       .  S
N1039      H1044   1.045       .  S
N1042      H1045   1.045       .  S
N1042      H1046   1.047       .  S
C1047      C1048   1.397       .  A
C1047      C1052   1.399       .  A
C1047      H1054   1.081       .  S
C1048      C1049   1.414       .  A
C1049      C1050   1.399       .  A
C1049      N1056   1.440       .  S
C1050      C1051   1.399       .  A
C1050      H1055   1.077       .  S
C1051      C1052   1.405       .  A
C1052      N1053   1.436       .  S
N1053      H1057   1.046       .  S
N1053      H1058   1.044       .  S
N1056      H1059   1.041       .  S
N1056      H1060   1.045       .  S
C1061      C1062   1.396       .  A
C1061      C1066   1.391       .  A
C1061      H1068   1.081       .  S
C1062      C1063   1.421       .  A
C1063      C1064   1.398       .  A
C1063      N1070   1.440       .  S
C1064      C1065   1.400       .  A
C1064      H1069   1.084       .  S
C1065      C1066   1.403       .  A
C1066      N1067   1.433       .  S
N1067      H1071   1.046       .  S
N1067      H1072   1.044       .  S
N1070      H1073   1.042       .  S
N1070      H1074   1.044       .  S
C1075      C1076   1.398       .  A
C1075      C1080   1.397       .  A
C1075      H1082   1.081       .  S
C1076      C1077   1.409       .  A
C1077      C1078   1.400       .  A
C1077      N1084   1.438       .  S
C1078      C1079   1.398       .  A
C1078      H1083   1.084       .  S
C1079      C1080   1.404       .  A
C1080      N1081   1.437       .  S
N1081      H1085   1.045       .  S
N1081      H1086   1.046       .  S
N1084      H1087   1.043       .  S
C1089      C1090   1.400       .  A
C1089      C1094   1.394       .  A
C1089      H1096   1.084       .  S
C1090      C1091   1.408       .  A
C1091      C1092   1.399       .  A
C1091      N1098   1.437       .  S
C1092      C1093   1.398       .  A
C1092      H1097   1.084       .  S
C1093      C1094   1.410       .  A
C1094      N1095   1.434       .  S
N1095      H1099   1.046       .  S
N1095      H1100   1.046       .  S
N1098      H1101   1.046       .  S
N1098      H1102   1.045       .  S
C1103      C1104   1.402       .  A
C1103      C1108   1.396       .  A
C1103      H1110   1.084       .  S
C1104      C1105   1.406       .  A
C1105      C1106   1.393       .  A
C1105      N1112   1.433       .  S
C1106      C1107   1.401       .  A
C1106      H1111   1.079       .  S
C1107      C1108   1.409       .  A
C1108      N1109   1.430       .  S
N1109      H1113   1.043       .  S
N1109      H1114   1.046       .  S
N1112      H1115   1.046       .  S
N1112      H1116   1.046       .  S
C1117      C1118   1.395       .  A
C1117      C1122   1.387       .  A
C1117      H1124   1.074       .  S
C1118      C1119   1.420       .  A
C1119      C1120   1.408       .  A
C1119      N1126   1.439       .  S
C1120      C1121   1.409       .  A
C1120      H1125   1.082       .  S
C1121      C1122   1.415       .  A
C1122      N1123   1.429       .  S
N1123      H1127   1.046       .  S
N1123      H1128   1.046       .  S
N1126      H1129   1.046       .  S
N1126      H1130   1.045       .  S
C1131      C1132   1.397       .  A
C1131      C1136   1.392       .  A
C1131      H1138   1.081       .  S
C1132      C1133   1.408       .  A
C1133      C1134   1.391       .  A
C1133      N1140   1.428       .  S
C1134      C1135   1.398       .  A
C1134      H1139   1.084       .  S
C1135      C1136   1.408       .  A
C1136      N1137   1.430       .  S
N1137      H1141   1.045       .  S
N1137      H1142   1.043       .  S
N1140      H1143   1.044       .  S
N1140      H1144   1.044       .  S
C1145      C1146   1.399       .  A
C1145      C1150   1.391       .  A
C1145      H1152   1.079       .  S
C1146      C1147   1.419       .  A
C1147      C1148   1.397       .  A
C1147      N1154   1.433       .  S
C1148      C1149   1.404       .  A
C1148      H1153   1.084       .  S
C1149      C1150   1.414       .  A
C1150      N1151   1.432       .  S
N1151      H1155   1.040       .  S
N1151      H1156   1.045       .  S
N1154      H1157   1.044       .  S
C1159      C1160   1.395       .  A
C1159      C1164   1.399       .  A
C1159      H1166   1.084       .  S
C1160      C1161   1.405       .  A
C1161      C1162   1.399       .  A
C1161      N1168   1.431       .  S
C1162      C1163   1.401       .  A
C1162      H1167   1.082       .  S
C1163      C1164   1.408       .  A
C1164      N1165   1.433       .  S
N1165      H1169   1.045       .  S
N1165      H1170   1.046       .  S
N1168      H1171   1.044       .  S
N1168      H1172   1.045       .  S
O1173      C1181   1.271       .  A
O1174      C1182   1.272       .  A
O1175      C1183   1.272       .  A
O1175     Co1781   1.998       .  S
O1176      C1184   1.272       .  A
O1176     Co2075   1.995       .  S
O1177      C1183   1.250       .  A
O1177     Co1194   1.916   1_655  S
O1178      C1184   1.248       .  A
O1178     Co1486   1.911       .  S
O1179      C1182   1.253       .  A
O1179     Co1489   1.928   1_545  S
O1180      C1181   1.251       .  A
O1180     Co1195   1.925       .  S
C1181      C1286   1.466       .  S
C1182      C1202   1.475       .  S
C1183      C1250   1.475       .  S
C1184      C1214   1.470       .  S
O1185      C1198   1.273       .  A
O1185     Co1193   1.993   1_554  S
O1186      C1199   1.273       .  A
O1186     Co1487   1.998   1_654  S
O1187      C1200   1.275       .  A
O1187     Co1488   1.994   1_554  S
O1188      C1201   1.273       .  A
O1188     Co1196   1.996   1_544  S
O1189      C1201   1.253       .  A
O1190      C1200   1.250       .  A
O1191      C1198   1.256       .  A
O1191     Co1782   1.916   1_554  S
O1192      C1199   1.257       .  A
O1192     Co2074   1.916   1_554  S
Co1193     O1471   1.911       .  S
Co1193     O1490   1.943   1_556  S
Co1194     O1479   1.998   1_455  S
Co1195     O1761   1.998       .  S
Co1195     O1480   1.994       .  S
Co1195     O2071   1.916       .  S
Co1196     O2055   1.995       .  S
Co1196     O1472   1.928   1_565  S
Co1196     O1777   1.916   1_556  S
Co1196     O2076   1.951   1_566  S
O1197     Co1486   1.943       .  S
O1197     Co2075   1.951       .  S
C1198      C1226   1.475       .  S
C1199      C1262   1.479       .  S
C1200      C1274   1.464       .  S
C1201      C1238   1.471       .  S
C1202      C1203   1.544       .  S
C1202      C1208   1.523       .  S
C1202      C1206   1.524       .  S
C1203      H1210   1.086       .  S
C1203      C1204   1.367       .  D
C1204      C1205   1.536       .  S
C1204      C1442   1.481       .  S
C1205      C1209   1.537       .  S
C1205      C1207   1.531       .  S
C1205      H1211   1.107       .  S
C1206      H1212   1.087       .  S
C1206      C1207   1.352       .  D
C1207      C1453   1.463       .  S
C1208      H1213   1.087       .  S
C1208      C1209   1.360       .  D
C1209      C1428   1.460       .  S
C1214      C1215   1.538       .  S
C1214      C1220   1.521       .  S
C1214      C1218   1.523       .  S
C1215      H1222   1.087       .  S
C1215      C1216   1.358       .  D
C1216      C1217   1.539       .  S
C1216      C1456   1.474       .  S
C1217      C1221   1.537       .  S
C1217      C1219   1.547       .  S
C1217      H1223   1.102       .  S
C1218      H1224   1.083       .  S
C1218      C1219   1.360       .  D
C1219      C1411   1.491       .  S
C1220      H1225   1.087       .  S
C1220      C1221   1.361       .  D
C1221      C1397   1.471       .  S
C1226      C1227   1.540       .  S
C1226      C1232   1.529       .  S
C1226      C1230   1.523       .  S
C1227      H1234   1.087       .  S
C1227      C1228   1.356       .  D
C1228      C1229   1.528       .  S
C1228      C1383   1.466       .  S
C1229      C1233   1.537       .  S
C1229      C1231   1.533       .  S
C1229      H1235   1.110       .  S
C1230      H1236   1.087       .  S
C1230      C1231   1.354       .  D
C1231      C1372   1.455       .  S
C1232      H1237   1.085       .  S
C1232      C1233   1.367       .  D
C1233      C1400   1.475       .  S
C1238      C1239   1.540       .  S
C1238      C1244   1.531       .  S
C1238      C1242   1.520       .  S
C1239      H1246   1.087       .  S
C1239      C1240   1.350       .  D
C1240      C1241   1.532       .  S
C1240      C1369   1.462       .  S
C1241      C1245   1.529       .  S
C1241      C1243   1.540       .  S
C1241      H1247   1.112       .  S
C1242      H1248   1.087       .  S
C1242      C1243   1.357       .  D
C1243      C1355   1.463       .  S
C1244      H1249   1.086       .  S
C1244      C1245   1.363       .  D
C1245      C1425   1.461       .  S
C1250      C1251   1.545       .  S
C1250      C1256   1.518       .  S
C1250      C1254   1.525       .  S
C1251      H1258   1.087       .  S
C1251      C1252   1.361       .  D
C1252      C1253   1.533       .  S
C1252      C1344   1.472       .  S
C1253      C1257   1.542       .  S
C1253      C1255   1.542       .  S
C1253      H1259   1.111       .  S
C1254      H1260   1.082       .  S
C1254      C1255   1.358       .  D
C1255      C1439   1.480       .  S
C1256      H1261   1.087       .  S
C1256      C1257   1.356       .  D
C1257      C1327   1.457       .  S
C1262      C1263   1.537       .  S
C1262      C1268   1.528       .  S
C1262      C1266   1.529       .  S
C1263      H1270   1.087       .  S
C1263      C1264   1.350       .  D
C1264      C1265   1.535       .  S
C1264      C1358   1.467       .  S
C1265      C1269   1.528       .  S
C1265      C1267   1.542       .  S
C1265      H1271   1.110       .  S
C1266      H1272   1.082       .  S
C1266      C1267   1.367       .  D
C1267      C1316   1.482       .  S
C1268      H1273   1.086       .  S
C1268      C1269   1.360       .  D
C1269      C1330   1.454       .  S
C1274      C1275   1.548       .  S
C1274      C1280   1.519       .  S
C1274      C1278   1.519       .  S
C1275      H1282   1.086       .  S
C1275      C1276   1.364       .  D
C1276      C1277   1.532       .  S
C1276      C1313   1.480       .  S
C1277      C1281   1.530       .  S
C1277      C1279   1.534       .  S
C1277      H1283   1.105       .  S
C1278      H1284   1.087       .  S
C1278      C1279   1.357       .  D
C1279      C1386   1.463       .  S
C1280      H1285   1.086       .  S
C1280      C1281   1.354       .  D
C1281      C1299   1.454       .  S
C1286      C1287   1.544       .  S
C1286      C1292   1.517       .  S
C1286      C1290   1.525       .  S
C1287      H1294   1.085       .  S
C1287      C1288   1.374       .  D
C1288      C1289   1.544       .  S
C1288      C1414   1.498       .  S
C1289      C1293   1.532       .  S
C1289      C1291   1.534       .  S
C1289      H1295   1.101       .  S
C1290      H1296   1.087       .  S
C1290      C1291   1.351       .  D
C1291      C1341   1.464       .  S
C1292      H1297   1.087       .  S
C1292      C1293   1.352       .  D
C1293      C1302   1.458       .  S
C1298      C1299   1.397       .  A
C1298      C1303   1.388       .  A
C1298      H1305   1.085       .  S
C1299      C1300   1.410       .  A
C1300      C1301   1.391       .  A
C1300      N1307   1.433       .  S
C1301      C1302   1.402       .  A
C1301      H1306   1.084       .  S
C1302      C1303   1.403       .  A
C1303      N1304   1.431       .  S
N1304      H1308   1.045       .  S
N1304      H1309   1.046       .  S
N1307      H1310   1.045       .  S
N1307      H1311   1.045       .  S
C1312      C1313   1.408       .  A
C1312      C1317   1.401       .  A
C1312      H1319   1.084       .  S
C1313      C1314   1.412       .  A
C1314      C1315   1.384       .  A
C1314      N1321   1.433       .  S
C1315      C1316   1.396       .  A
C1315      H1320   1.072       .  S
C1316      C1317   1.418       .  A
C1317      N1318   1.434       .  S
N1318      H1322   1.041       .  S
N1318      H1323   1.046       .  S
N1321      H1324   1.048       .  S
N1321      H1325   1.037       .  S
C1326      C1327   1.397       .  A
C1326      C1331   1.396       .  A
C1326      H1333   1.081       .  S
C1327      C1328   1.407       .  A
C1328      C1329   1.400       .  A
C1328      N1335   1.438       .  S
C1329      C1330   1.399       .  A
C1329      H1334   1.084       .  S
C1330      C1331   1.404       .  A
C1331      N1332   1.438       .  S
N1332      H1336   1.046       .  S
N1332      H1337   1.045       .  S
N1335      H1338   1.045       .  S
N1335      H1339   1.046       .  S
C1340      C1341   1.397       .  A
C1340      C1345   1.399       .  A
C1340      H1347   1.081       .  S
C1341      C1342   1.414       .  A
C1342      C1343   1.399       .  A
C1342      N1349   1.440       .  S
C1343      C1344   1.399       .  A
C1343      H1348   1.077       .  S
C1344      C1345   1.405       .  A
C1345      N1346   1.436       .  S
N1346      H1350   1.045       .  S
N1346      H1351   1.045       .  S
N1349      H1352   1.042       .  S
N1349      H1353   1.045       .  S
C1354      C1355   1.396       .  A
C1354      C1359   1.391       .  A
C1354      H1361   1.081       .  S
C1355      C1356   1.421       .  A
C1356      C1357   1.398       .  A
C1356      N1363   1.440       .  S
C1357      C1358   1.400       .  A
C1357      H1362   1.084       .  S
C1358      C1359   1.403       .  A
C1359      N1360   1.433       .  S
N1360      H1364   1.045       .  S
N1360      H1365   1.044       .  S
N1363      H1366   1.042       .  S
N1363      H1367   1.044       .  S
C1368      C1369   1.398       .  A
C1368      C1373   1.397       .  A
C1368      H1375   1.081       .  S
C1369      C1370   1.409       .  A
C1370      C1371   1.400       .  A
C1370      N1377   1.438       .  S
C1371      C1372   1.398       .  A
C1371      H1376   1.084       .  S
C1372      C1373   1.404       .  A
C1373      N1374   1.437       .  S
N1374      H1378   1.045       .  S
N1374      H1379   1.046       .  S
N1377      H1380   1.044       .  S
N1377      H1674   1.043       .  S
H1381      N1670   1.043       .  S
C1382      C1383   1.400       .  A
C1382      C1387   1.394       .  A
C1382      H1389   1.084       .  S
C1383      C1384   1.408       .  A
C1384      C1385   1.399       .  A
C1384      N1391   1.437       .  S
C1385      C1386   1.398       .  A
C1385      H1390   1.084       .  S
C1386      C1387   1.410       .  A
C1387      N1388   1.434       .  S
N1388      H1392   1.046       .  S
N1388      H1393   1.046       .  S
N1391      H1394   1.046       .  S
N1391      H1395   1.045       .  S
C1396      C1397   1.402       .  A
C1396      C1401   1.396       .  A
C1396      H1403   1.084       .  S
C1397      C1398   1.406       .  A
C1398      C1399   1.393       .  A
C1398      N1405   1.433       .  S
C1399      C1400   1.401       .  A
C1399      H1404   1.079       .  S
C1400      C1401   1.409       .  A
C1401      N1402   1.430       .  S
N1402      H1406   1.043       .  S
N1402      H1407   1.046       .  S
N1405      H1408   1.046       .  S
N1405      H1409   1.046       .  S
C1410      C1411   1.395       .  A
C1410      C1415   1.387       .  A
C1410      H1417   1.074       .  S
C1411      C1412   1.420       .  A
C1412      C1413   1.408       .  A
C1412      N1419   1.439       .  S
C1413      C1414   1.409       .  A
C1413      H1418   1.082       .  S
C1414      C1415   1.415       .  A
C1415      N1416   1.429       .  S
N1416      H1420   1.046       .  S
N1416      H1421   1.046       .  S
N1419      H1422   1.046       .  S
N1419      H1423   1.045       .  S
C1424      C1425   1.397       .  A
C1424      C1429   1.392       .  A
C1424      H1431   1.081       .  S
C1425      C1426   1.408       .  A
C1426      C1427   1.391       .  A
C1426      N1433   1.428       .  S
C1427      C1428   1.398       .  A
C1427      H1432   1.084       .  S
C1428      C1429   1.408       .  A
C1429      N1430   1.430       .  S
N1430      H1434   1.045       .  S
N1430      H1435   1.043       .  S
N1433      H1436   1.044       .  S
N1433      H1437   1.044       .  S
C1438      C1439   1.399       .  A
C1438      C1443   1.391       .  A
C1438      H1445   1.079       .  S
C1439      C1440   1.419       .  A
C1440      C1441   1.397       .  A
C1440      N1447   1.433       .  S
C1441      C1442   1.404       .  A
C1441      H1446   1.084       .  S
C1442      C1443   1.414       .  A
C1443      N1444   1.432       .  S
N1444      H1448   1.040       .  S
N1444      H1449   1.045       .  S
N1447      H1450   1.044       .  S
N1447      H1744   1.042       .  S
H1451      N1740   1.042       .  S
C1452      C1453   1.395       .  A
C1452      C1457   1.399       .  A
C1452      H1459   1.084       .  S
C1453      C1454   1.405       .  A
C1454      C1455   1.399       .  A
C1454      N1461   1.431       .  S
C1455      C1456   1.401       .  A
C1455      H1460   1.082       .  S
C1456      C1457   1.408       .  A
C1457      N1458   1.433       .  S
N1458      H1462   1.045       .  S
N1458      H1463   1.046       .  S
N1461      H1464   1.044       .  S
N1461      H1465   1.045       .  S
O1466      C1474   1.271       .  A
O1467      C1475   1.272       .  A
O1468      C1476   1.272       .  A
O1468     Co2074   1.998       .  S
O1469      C1477   1.272       .  A
O1469     Co1782   1.995       .  S
O1470      C1476   1.250       .  A
O1470     Co1487   1.916   1_655  S
O1471      C1477   1.248       .  A
O1472      C1475   1.253       .  A
O1473      C1474   1.251       .  A
O1473     Co1488   1.925       .  S
C1474      C1579   1.466       .  S
C1475      C1495   1.475       .  S
C1476      C1543   1.475       .  S
C1477      C1507   1.470       .  S
O1478      C1491   1.273       .  A
O1478     Co1486   1.993       .  S
O1479      C1492   1.273       .  A
O1480      C1493   1.275       .  A
O1481      C1494   1.273       .  A
O1481     Co1489   1.996   1_545  S
O1482      C1494   1.253       .  A
O1483      C1493   1.250       .  A
O1484      C1491   1.256       .  A
O1484     Co2075   1.916       .  S
O1485      C1492   1.257       .  A
O1485     Co1781   1.916       .  S
Co1488     O2054   1.998       .  S
Co1488     O1778   1.916   1_556  S
Co1489     O1762   1.995       .  S
Co1489     O2070   1.916       .  S
Co1489     O1783   1.951   1_565  S
O1490     Co1782   1.951   1_554  S
C1491      C1519   1.475       .  S
C1492      C1555   1.479       .  S
C1493      C1567   1.464       .  S
C1494      C1531   1.471       .  S
C1495      C1496   1.544       .  S
C1495      C1501   1.523       .  S
C1495      C1499   1.524       .  S
C1496      H1503   1.086       .  S
C1496      C1497   1.367       .  D
C1497      C1498   1.536       .  S
C1497      C1735   1.481       .  S
C1498      C1502   1.537       .  S
C1498      C1500   1.531       .  S
C1498      H1504   1.107       .  S
C1499      H1505   1.087       .  S
C1499      C1500   1.352       .  D
C1500      C1746   1.463       .  S
C1501      H1506   1.087       .  S
C1501      C1502   1.360       .  D
C1502      C1721   1.460       .  S
C1507      C1508   1.538       .  S
C1507      C1513   1.521       .  S
C1507      C1511   1.523       .  S
C1508      H1515   1.087       .  S
C1508      C1509   1.358       .  D
C1509      C1510   1.539       .  S
C1509      C1749   1.474       .  S
C1510      C1514   1.537       .  S
C1510      C1512   1.547       .  S
C1510      H1516   1.102       .  S
C1511      H1517   1.083       .  S
C1511      C1512   1.360       .  D
C1512      C1704   1.491       .  S
C1513      H1518   1.087       .  S
C1513      C1514   1.361       .  D
C1514      C1690   1.471       .  S
C1519      C1520   1.540       .  S
C1519      C1525   1.529       .  S
C1519      C1523   1.523       .  S
C1520      H1527   1.087       .  S
C1520      C1521   1.356       .  D
C1521      C1522   1.528       .  S
C1521      C1676   1.466       .  S
C1522      C1526   1.537       .  S
C1522      C1524   1.533       .  S
C1522      H1528   1.110       .  S
C1523      H1529   1.087       .  S
C1523      C1524   1.354       .  D
C1524      C1665   1.455       .  S
C1525      H1530   1.085       .  S
C1525      C1526   1.367       .  D
C1526      C1693   1.475       .  S
C1531      C1532   1.540       .  S
C1531      C1537   1.531       .  S
C1531      C1535   1.520       .  S
C1532      H1539   1.087       .  S
C1532      C1533   1.350       .  D
C1533      C1534   1.532       .  S
C1533      C1662   1.462       .  S
C1534      C1538   1.529       .  S
C1534      C1536   1.540       .  S
C1534      H1540   1.112       .  S
C1535      H1541   1.087       .  S
C1535      C1536   1.357       .  D
C1536      C1648   1.463       .  S
C1537      H1542   1.086       .  S
C1537      C1538   1.363       .  D
C1538      C1718   1.461       .  S
C1543      C1544   1.545       .  S
C1543      C1549   1.518       .  S
C1543      C1547   1.525       .  S
C1544      H1551   1.087       .  S
C1544      C1545   1.361       .  D
C1545      C1546   1.533       .  S
C1545      C1637   1.472       .  S
C1546      C1550   1.542       .  S
C1546      C1548   1.542       .  S
C1546      H1552   1.111       .  S
C1547      H1553   1.082       .  S
C1547      C1548   1.358       .  D
C1548      C1732   1.480       .  S
C1549      H1554   1.087       .  S
C1549      C1550   1.356       .  D
C1550      C1620   1.457       .  S
C1555      C1556   1.537       .  S
C1555      C1561   1.528       .  S
C1555      C1559   1.529       .  S
C1556      H1563   1.087       .  S
C1556      C1557   1.350       .  D
C1557      C1558   1.535       .  S
C1557      C1651   1.467       .  S
C1558      C1562   1.528       .  S
C1558      C1560   1.542       .  S
C1558      H1564   1.110       .  S
C1559      H1565   1.082       .  S
C1559      C1560   1.367       .  D
C1560      C1609   1.482       .  S
C1561      H1566   1.086       .  S
C1561      C1562   1.360       .  D
C1562      C1623   1.454       .  S
C1567      C1568   1.548       .  S
C1567      C1573   1.519       .  S
C1567      C1571   1.519       .  S
C1568      H1575   1.086       .  S
C1568      C1569   1.364       .  D
C1569      C1570   1.532       .  S
C1569      C1606   1.480       .  S
C1570      C1574   1.530       .  S
C1570      C1572   1.534       .  S
C1570      H1576   1.105       .  S
C1571      H1577   1.087       .  S
C1571      C1572   1.357       .  D
C1572      C1679   1.463       .  S
C1573      H1578   1.086       .  S
C1573      C1574   1.354       .  D
C1574      C1592   1.454       .  S
C1579      C1580   1.544       .  S
C1579      C1585   1.517       .  S
C1579      C1583   1.525       .  S
C1580      H1587   1.085       .  S
C1580      C1581   1.374       .  D
C1581      C1582   1.544       .  S
C1581      C1707   1.498       .  S
C1582      C1586   1.532       .  S
C1582      C1584   1.534       .  S
C1582      H1588   1.101       .  S
C1583      H1589   1.087       .  S
C1583      C1584   1.351       .  D
C1584      C1634   1.464       .  S
C1585      H1590   1.087       .  S
C1585      C1586   1.352       .  D
C1586      C1595   1.458       .  S
C1591      C1592   1.397       .  A
C1591      C1596   1.388       .  A
C1591      H1598   1.085       .  S
C1592      C1593   1.410       .  A
C1593      C1594   1.391       .  A
C1593      N1600   1.433       .  S
C1594      C1595   1.402       .  A
C1594      H1599   1.084       .  S
C1595      C1596   1.403       .  A
C1596      N1597   1.431       .  S
N1597      H1601   1.045       .  S
N1597      H1602   1.046       .  S
N1600      H1603   1.045       .  S
N1600      H1604   1.045       .  S
C1605      C1606   1.408       .  A
C1605      C1610   1.401       .  A
C1605      H1612   1.084       .  S
C1606      C1607   1.412       .  A
C1607      C1608   1.384       .  A
C1607      N1614   1.433       .  S
C1608      C1609   1.396       .  A
C1608      H1613   1.072       .  S
C1609      C1610   1.418       .  A
C1610      N1611   1.434       .  S
N1611      H1615   1.041       .  S
N1611      H1616   1.046       .  S
N1614      H1617   1.047       .  S
N1614      H1618   1.037       .  S
C1619      C1620   1.397       .  A
C1619      C1624   1.396       .  A
C1619      H1626   1.081       .  S
C1620      C1621   1.407       .  A
C1621      C1622   1.400       .  A
C1621      N1628   1.438       .  S
C1622      C1623   1.399       .  A
C1622      H1627   1.084       .  S
C1623      C1624   1.404       .  A
C1624      N1625   1.438       .  S
N1625      H1629   1.046       .  S
N1625      H1630   1.044       .  S
N1628      H1631   1.045       .  S
N1628      H1632   1.046       .  S
C1633      C1634   1.397       .  A
C1633      C1638   1.399       .  A
C1633      H1640   1.081       .  S
C1634      C1635   1.414       .  A
C1635      C1636   1.399       .  A
C1635      N1642   1.440       .  S
C1636      C1637   1.399       .  A
C1636      H1641   1.077       .  S
C1637      C1638   1.405       .  A
C1638      N1639   1.436       .  S
N1639      H1643   1.045       .  S
N1639      H1644   1.045       .  S
N1642      H1645   1.041       .  S
N1642      H1646   1.045       .  S
C1647      C1648   1.396       .  A
C1647      C1652   1.391       .  A
C1647      H1654   1.081       .  S
C1648      C1649   1.421       .  A
C1649      C1650   1.398       .  A
C1649      N1656   1.440       .  S
C1650      C1651   1.400       .  A
C1650      H1655   1.084       .  S
C1651      C1652   1.403       .  A
C1652      N1653   1.433       .  S
N1653      H1657   1.045       .  S
N1653      H1658   1.044       .  S
N1656      H1659   1.042       .  S
N1656      H1660   1.044       .  S
C1661      C1662   1.398       .  A
C1661      C1666   1.397       .  A
C1661      H1668   1.081       .  S
C1662      C1663   1.409       .  A
C1663      C1664   1.400       .  A
C1663      N1670   1.438       .  S
C1664      C1665   1.398       .  A
C1664      H1669   1.084       .  S
C1665      C1666   1.404       .  A
C1666      N1667   1.437       .  S
N1667      H1671   1.045       .  S
N1667      H1672   1.046       .  S
N1670      H1673   1.044       .  S
C1675      C1676   1.400       .  A
C1675      C1680   1.394       .  A
C1675      H1682   1.084       .  S
C1676      C1677   1.408       .  A
C1677      C1678   1.399       .  A
C1677      N1684   1.437       .  S
C1678      C1679   1.398       .  A
C1678      H1683   1.084       .  S
C1679      C1680   1.410       .  A
C1680      N1681   1.434       .  S
N1681      H1685   1.046       .  S
N1681      H1686   1.046       .  S
N1684      H1687   1.046       .  S
N1684      H1688   1.045       .  S
C1689      C1690   1.402       .  A
C1689      C1694   1.396       .  A
C1689      H1696   1.084       .  S
C1690      C1691   1.406       .  A
C1691      C1692   1.393       .  A
C1691      N1698   1.433       .  S
C1692      C1693   1.401       .  A
C1692      H1697   1.079       .  S
C1693      C1694   1.409       .  A
C1694      N1695   1.430       .  S
N1695      H1699   1.043       .  S
N1695      H1700   1.046       .  S
N1698      H1701   1.046       .  S
N1698      H1702   1.046       .  S
C1703      C1704   1.395       .  A
C1703      C1708   1.387       .  A
C1703      H1710   1.074       .  S
C1704      C1705   1.420       .  A
C1705      C1706   1.408       .  A
C1705      N1712   1.439       .  S
C1706      C1707   1.409       .  A
C1706      H1711   1.082       .  S
C1707      C1708   1.415       .  A
C1708      N1709   1.429       .  S
N1709      H1713   1.046       .  S
N1709      H1714   1.046       .  S
N1712      H1715   1.046       .  S
N1712      H1716   1.045       .  S
C1717      C1718   1.397       .  A
C1717      C1722   1.392       .  A
C1717      H1724   1.081       .  S
C1718      C1719   1.408       .  A
C1719      C1720   1.391       .  A
C1719      N1726   1.428       .  S
C1720      C1721   1.398       .  A
C1720      H1725   1.084       .  S
C1721      C1722   1.408       .  A
C1722      N1723   1.430       .  S
N1723      H1727   1.045       .  S
N1723      H1728   1.043       .  S
N1726      H1729   1.044       .  S
N1726      H1730   1.044       .  S
C1731      C1732   1.399       .  A
C1731      C1736   1.391       .  A
C1731      H1738   1.079       .  S
C1732      C1733   1.419       .  A
C1733      C1734   1.397       .  A
C1733      N1740   1.433       .  S
C1734      C1735   1.404       .  A
C1734      H1739   1.084       .  S
C1735      C1736   1.414       .  A
C1736      N1737   1.432       .  S
N1737      H1741   1.040       .  S
N1737      H1742   1.045       .  S
N1740      H1743   1.044       .  S
C1745      C1746   1.395       .  A
C1745      C1750   1.399       .  A
C1745      H1752   1.084       .  S
C1746      C1747   1.405       .  A
C1747      C1748   1.399       .  A
C1747      N1754   1.431       .  S
C1748      C1749   1.401       .  A
C1748      H1753   1.082       .  S
C1749      C1750   1.408       .  A
C1750      N1751   1.433       .  S
N1751      H1755   1.045       .  S
N1751      H1756   1.046       .  S
N1754      H1757   1.044       .  S
N1754      H1758   1.045       .  S
O1759      C1767   1.271       .  A
O1760      C1768   1.272       .  A
O1761      C1769   1.272       .  A
O1762      C1770   1.272       .  A
O1763      C1769   1.250       .  A
O1763     Co1780   1.916   1_655  S
O1764      C1770   1.248       .  A
O1764     Co2072   1.911       .  S
O1765      C1768   1.253       .  A
O1765     Co2075   1.928       .  S
O1766      C1767   1.251       .  A
O1766     Co1781   1.925   1_565  S
C1767      C1872   1.466       .  S
C1768      C1788   1.475       .  S
C1769      C1836   1.475       .  S
C1770      C1800   1.470       .  S
O1771      C1784   1.273       .  A
O1771     Co1779   1.993   1_554  S
O1772      C1785   1.273       .  A
O1772     Co2073   1.998   1_654  S
O1773      C1786   1.275       .  A
O1773     Co2074   1.994   1_564  S
O1774      C1787   1.273       .  A
O1774     Co1782   1.996   1_554  S
O1775      C1787   1.253       .  A
O1776      C1786   1.250       .  A
O1777      C1784   1.256       .  A
O1778      C1785   1.257       .  A
Co1779     O2057   1.911       .  S
Co1779     O2076   1.943   1_566  S
Co1780     O2065   1.998   1_455  S
Co1781     O2066   1.994   1_545  S
Co1782     O2058   1.928       .  S
O1783     Co2072   1.943   1_545  S
C1784      C1812   1.475       .  S
C1785      C1848   1.479       .  S
C1786      C1860   1.464       .  S
C1787      C1824   1.471       .  S
C1788      C1789   1.544       .  S
C1788      C1794   1.523       .  S
C1788      C1792   1.524       .  S
C1789      H1796   1.086       .  S
C1789      C1790   1.367       .  D
C1790      C1791   1.536       .  S
C1790      C2028   1.481       .  S
C1791      C1795   1.537       .  S
C1791      C1793   1.531       .  S
C1791      H1797   1.107       .  S
C1792      H1798   1.087       .  S
C1792      C1793   1.352       .  D
C1793      C2039   1.463       .  S
C1794      H1799   1.087       .  S
C1794      C1795   1.360       .  D
C1795      C2014   1.460       .  S
C1800      C1801   1.538       .  S
C1800      C1806   1.521       .  S
C1800      C1804   1.523       .  S
C1801      H1808   1.087       .  S
C1801      C1802   1.358       .  D
C1802      C1803   1.539       .  S
C1802      C2042   1.474       .  S
C1803      C1807   1.537       .  S
C1803      C1805   1.547       .  S
C1803      H1809   1.102       .  S
C1804      H1810   1.083       .  S
C1804      C1805   1.360       .  D
C1805      C1997   1.491       .  S
C1806      H1811   1.087       .  S
C1806      C1807   1.361       .  D
C1807      C1983   1.471       .  S
C1812      C1813   1.540       .  S
C1812      C1818   1.529       .  S
C1812      C1816   1.523       .  S
C1813      H1820   1.087       .  S
C1813      C1814   1.356       .  D
C1814      C1815   1.528       .  S
C1814      C1969   1.466       .  S
C1815      C1819   1.537       .  S
C1815      C1817   1.533       .  S
C1815      H1821   1.110       .  S
C1816      H1822   1.087       .  S
C1816      C1817   1.354       .  D
C1817      C1958   1.455       .  S
C1818      H1823   1.085       .  S
C1818      C1819   1.367       .  D
C1819      C1986   1.475       .  S
C1824      C1825   1.540       .  S
C1824      C1830   1.531       .  S
C1824      C1828   1.520       .  S
C1825      H1832   1.087       .  S
C1825      C1826   1.350       .  D
C1826      C1827   1.532       .  S
C1826      C1955   1.461       .  S
C1827      C1831   1.529       .  S
C1827      C1829   1.540       .  S
C1827      H1833   1.112       .  S
C1828      H1834   1.087       .  S
C1828      C1829   1.357       .  D
C1829      C1941   1.463       .  S
C1830      H1835   1.086       .  S
C1830      C1831   1.363       .  D
C1831      C2011   1.461       .  S
C1836      C1837   1.545       .  S
C1836      C1842   1.518       .  S
C1836      C1840   1.525       .  S
C1837      H1844   1.087       .  S
C1837      C1838   1.361       .  D
C1838      C1839   1.533       .  S
C1838      C1930   1.472       .  S
C1839      C1843   1.542       .  S
C1839      C1841   1.542       .  S
C1839      H1845   1.111       .  S
C1840      H1846   1.082       .  S
C1840      C1841   1.358       .  D
C1841      C2025   1.480       .  S
C1842      H1847   1.087       .  S
C1842      C1843   1.356       .  D
C1843      C1913   1.457       .  S
C1848      C1849   1.537       .  S
C1848      C1854   1.528       .  S
C1848      C1852   1.529       .  S
C1849      H1856   1.087       .  S
C1849      C1850   1.350       .  D
C1850      C1851   1.535       .  S
C1850      C1944   1.467       .  S
C1851      C1855   1.528       .  S
C1851      C1853   1.542       .  S
C1851      H1857   1.110       .  S
C1852      H1858   1.082       .  S
C1852      C1853   1.367       .  D
C1853      C1902   1.482       .  S
C1854      H1859   1.086       .  S
C1854      C1855   1.360       .  D
C1855      C1916   1.454       .  S
C1860      C1861   1.548       .  S
C1860      C1866   1.519       .  S
C1860      C1864   1.519       .  S
C1861      H1868   1.086       .  S
C1861      C1862   1.364       .  D
C1862      C1863   1.532       .  S
C1862      C1899   1.480       .  S
C1863      C1867   1.530       .  S
C1863      C1865   1.534       .  S
C1863      H1869   1.105       .  S
C1864      H1870   1.087       .  S
C1864      C1865   1.357       .  D
C1865      C1972   1.463       .  S
C1866      H1871   1.086       .  S
C1866      C1867   1.354       .  D
C1867      C1885   1.454       .  S
C1872      C1873   1.544       .  S
C1872      C1878   1.517       .  S
C1872      C1876   1.525       .  S
C1873      H1880   1.085       .  S
C1873      C1874   1.374       .  D
C1874      C1875   1.544       .  S
C1874      C2000   1.498       .  S
C1875      C1879   1.532       .  S
C1875      C1877   1.534       .  S
C1875      H1881   1.101       .  S
C1876      H1882   1.087       .  S
C1876      C1877   1.351       .  D
C1877      C1927   1.464       .  S
C1878      H1883   1.087       .  S
C1878      C1879   1.352       .  D
C1879      C1888   1.458       .  S
C1884      C1885   1.397       .  A
C1884      C1889   1.388       .  A
C1884      H1891   1.085       .  S
C1885      C1886   1.410       .  A
C1886      C1887   1.391       .  A
C1886      N1893   1.433       .  S
C1887      C1888   1.402       .  A
C1887      H1892   1.084       .  S
C1888      C1889   1.403       .  A
C1889      N1890   1.431       .  S
N1890      H1894   1.045       .  S
N1890      H1895   1.046       .  S
N1893      H1896   1.045       .  S
N1893      H1897   1.045       .  S
C1898      C1899   1.408       .  A
C1898      C1903   1.401       .  A
C1898      H1905   1.084       .  S
C1899      C1900   1.412       .  A
C1900      C1901   1.384       .  A
C1900      N1907   1.433       .  S
C1901      C1902   1.396       .  A
C1901      H1906   1.072       .  S
C1902      C1903   1.418       .  A
C1903      N1904   1.434       .  S
N1904      H1908   1.041       .  S
N1904      H1909   1.046       .  S
N1907      H1910   1.048       .  S
N1907      H1911   1.036       .  S
C1912      C1913   1.397       .  A
C1912      C1917   1.396       .  A
C1912      H1919   1.081       .  S
C1913      C1914   1.407       .  A
C1914      C1915   1.400       .  A
C1914      N1921   1.438       .  S
C1915      C1916   1.399       .  A
C1915      H1920   1.084       .  S
C1916      C1917   1.404       .  A
C1917      N1918   1.438       .  S
N1918      H1922   1.046       .  S
N1918      H1923   1.045       .  S
N1921      H1924   1.045       .  S
N1921      H1925   1.046       .  S
C1926      C1927   1.397       .  A
C1926      C1931   1.399       .  A
C1926      H1933   1.081       .  S
C1927      C1928   1.414       .  A
C1928      C1929   1.399       .  A
C1928      N1935   1.440       .  S
C1929      C1930   1.399       .  A
C1929      H1934   1.077       .  S
C1930      C1931   1.405       .  A
C1931      N1932   1.436       .  S
N1932      H1936   1.045       .  S
N1932      H1937   1.045       .  S
N1935      H1938   1.042       .  S
N1935      H1939   1.045       .  S
C1940      C1941   1.396       .  A
C1940      C1945   1.391       .  A
C1940      H1947   1.081       .  S
C1941      C1942   1.421       .  A
C1942      C1943   1.398       .  A
C1942      N1949   1.440       .  S
C1943      C1944   1.400       .  A
C1943      H1948   1.084       .  S
C1944      C1945   1.403       .  A
C1945      N1946   1.433       .  S
N1946      H1950   1.046       .  S
N1946      H1951   1.044       .  S
N1949      H1952   1.042       .  S
N1949      H1953   1.044       .  S
C1954      C1955   1.398       .  A
C1954      C1959   1.397       .  A
C1954      H1961   1.081       .  S
C1955      C1956   1.409       .  A
C1956      C1957   1.400       .  A
C1956      N1963   1.438       .  S
C1957      C1958   1.398       .  A
C1957      H1962   1.084       .  S
C1958      C1959   1.404       .  A
C1959      N1960   1.437       .  S
N1960      H1964   1.045       .  S
N1960      H1965   1.046       .  S
N1963      H1966   1.043       .  S
N1963      H2260   1.043       .  S
H1967      N2256   1.043       .  S
C1968      C1969   1.400       .  A
C1968      C1973   1.394       .  A
C1968      H1975   1.084       .  S
C1969      C1970   1.408       .  A
C1970      C1971   1.399       .  A
C1970      N1977   1.437       .  S
C1971      C1972   1.398       .  A
C1971      H1976   1.084       .  S
C1972      C1973   1.410       .  A
C1973      N1974   1.434       .  S
N1974      H1978   1.046       .  S
N1974      H1979   1.046       .  S
N1977      H1980   1.046       .  S
N1977      H1981   1.045       .  S
C1982      C1983   1.402       .  A
C1982      C1987   1.396       .  A
C1982      H1989   1.084       .  S
C1983      C1984   1.406       .  A
C1984      C1985   1.393       .  A
C1984      N1991   1.433       .  S
C1985      C1986   1.401       .  A
C1985      H1990   1.079       .  S
C1986      C1987   1.409       .  A
C1987      N1988   1.430       .  S
N1988      H1992   1.043       .  S
N1988      H1993   1.046       .  S
N1991      H1994   1.046       .  S
N1991      H1995   1.046       .  S
C1996      C1997   1.395       .  A
C1996      C2001   1.387       .  A
C1996      H2003   1.074       .  S
C1997      C1998   1.420       .  A
C1998      C1999   1.408       .  A
C1998      N2005   1.439       .  S
C1999      C2000   1.409       .  A
C1999      H2004   1.082       .  S
C2000      C2001   1.415       .  A
C2001      N2002   1.429       .  S
N2002      H2006   1.046       .  S
N2002      H2007   1.046       .  S
N2005      H2008   1.046       .  S
N2005      H2009   1.045       .  S
C2010      C2011   1.397       .  A
C2010      C2015   1.392       .  A
C2010      H2017   1.081       .  S
C2011      C2012   1.408       .  A
C2012      C2013   1.391       .  A
C2012      N2019   1.428       .  S
C2013      C2014   1.398       .  A
C2013      H2018   1.084       .  S
C2014      C2015   1.408       .  A
C2015      N2016   1.430       .  S
N2016      H2020   1.045       .  S
N2016      H2021   1.043       .  S
N2019      H2022   1.044       .  S
N2019      H2023   1.043       .  S
C2024      C2025   1.399       .  A
C2024      C2029   1.391       .  A
C2024      H2031   1.079       .  S
C2025      C2026   1.419       .  A
C2026      C2027   1.397       .  A
C2026      N2033   1.433       .  S
C2027      C2028   1.404       .  A
C2027      H2032   1.084       .  S
C2028      C2029   1.414       .  A
C2029      N2030   1.432       .  S
N2030      H2034   1.040       .  S
N2030      H2035   1.045       .  S
N2033      H2036   1.044       .  S
N2033      H2330   1.042       .  S
H2037      N2326   1.042       .  S
C2038      C2039   1.395       .  A
C2038      C2043   1.399       .  A
C2038      H2045   1.084       .  S
C2039      C2040   1.405       .  A
C2040      C2041   1.399       .  A
C2040      N2047   1.431       .  S
C2041      C2042   1.401       .  A
C2041      H2046   1.082       .  S
C2042      C2043   1.408       .  A
C2043      N2044   1.433       .  S
N2044      H2048   1.045       .  S
N2044      H2049   1.046       .  S
N2047      H2050   1.044       .  S
N2047      H2051   1.045       .  S
O2052      C2060   1.271       .  A
O2053      C2061   1.272       .  A
O2054      C2062   1.272       .  A
O2055      C2063   1.272       .  A
O2056      C2062   1.250       .  A
O2056     Co2073   1.916   1_655  S
O2057      C2063   1.248       .  A
O2058      C2061   1.253       .  A
O2059      C2060   1.251       .  A
O2059     Co2074   1.925   1_565  S
C2060      C2165   1.466       .  S
C2061      C2081   1.475       .  S
C2062      C2129   1.475       .  S
C2063      C2093   1.470       .  S
O2064      C2077   1.273       .  A
O2064     Co2072   1.993       .  S
O2065      C2078   1.273       .  A
O2066      C2079   1.275       .  A
O2067      C2080   1.273       .  A
O2067     Co2075   1.996       .  S
O2068      C2080   1.253       .  A
O2069      C2079   1.250       .  A
O2070      C2077   1.256       .  A
O2071      C2078   1.257       .  A
C2077      C2105   1.475       .  S
C2078      C2141   1.479       .  S
C2079      C2153   1.464       .  S
C2080      C2117   1.471       .  S
C2081      C2082   1.544       .  S
C2081      C2087   1.523       .  S
C2081      C2085   1.524       .  S
C2082      H2089   1.086       .  S
C2082      C2083   1.367       .  D
C2083      C2084   1.536       .  S
C2083      C2321   1.481       .  S
C2084      C2088   1.537       .  S
C2084      C2086   1.531       .  S
C2084      H2090   1.107       .  S
C2085      H2091   1.087       .  S
C2085      C2086   1.352       .  D
C2086      C2332   1.463       .  S
C2087      H2092   1.087       .  S
C2087      C2088   1.360       .  D
C2088      C2307   1.460       .  S
C2093      C2094   1.538       .  S
C2093      C2099   1.521       .  S
C2093      C2097   1.523       .  S
C2094      H2101   1.087       .  S
C2094      C2095   1.358       .  D
C2095      C2096   1.539       .  S
C2095      C2335   1.474       .  S
C2096      C2100   1.537       .  S
C2096      C2098   1.547       .  S
C2096      H2102   1.102       .  S
C2097      H2103   1.083       .  S
C2097      C2098   1.360       .  D
C2098      C2290   1.491       .  S
C2099      H2104   1.087       .  S
C2099      C2100   1.361       .  D
C2100      C2276   1.471       .  S
C2105      C2106   1.540       .  S
C2105      C2111   1.529       .  S
C2105      C2109   1.523       .  S
C2106      H2113   1.087       .  S
C2106      C2107   1.356       .  D
C2107      C2108   1.528       .  S
C2107      C2262   1.466       .  S
C2108      C2112   1.537       .  S
C2108      C2110   1.533       .  S
C2108      H2114   1.110       .  S
C2109      H2115   1.087       .  S
C2109      C2110   1.354       .  D
C2110      C2251   1.455       .  S
C2111      H2116   1.085       .  S
C2111      C2112   1.367       .  D
C2112      C2279   1.475       .  S
C2117      C2118   1.540       .  S
C2117      C2123   1.531       .  S
C2117      C2121   1.520       .  S
C2118      H2125   1.087       .  S
C2118      C2119   1.350       .  D
C2119      C2120   1.532       .  S
C2119      C2248   1.462       .  S
C2120      C2124   1.529       .  S
C2120      C2122   1.540       .  S
C2120      H2126   1.112       .  S
C2121      H2127   1.087       .  S
C2121      C2122   1.357       .  D
C2122      C2234   1.463       .  S
C2123      H2128   1.086       .  S
C2123      C2124   1.363       .  D
C2124      C2304   1.461       .  S
C2129      C2130   1.545       .  S
C2129      C2135   1.518       .  S
C2129      C2133   1.525       .  S
C2130      H2137   1.087       .  S
C2130      C2131   1.361       .  D
C2131      C2132   1.533       .  S
C2131      C2223   1.472       .  S
C2132      C2136   1.542       .  S
C2132      C2134   1.542       .  S
C2132      H2138   1.111       .  S
C2133      H2139   1.082       .  S
C2133      C2134   1.358       .  D
C2134      C2318   1.480       .  S
C2135      H2140   1.087       .  S
C2135      C2136   1.356       .  D
C2136      C2206   1.457       .  S
C2141      C2142   1.537       .  S
C2141      C2147   1.528       .  S
C2141      C2145   1.529       .  S
C2142      H2149   1.087       .  S
C2142      C2143   1.350       .  D
C2143      C2144   1.535       .  S
C2143      C2237   1.467       .  S
C2144      C2148   1.528       .  S
C2144      C2146   1.542       .  S
C2144      H2150   1.110       .  S
C2145      H2151   1.082       .  S
C2145      C2146   1.367       .  D
C2146      C2195   1.482       .  S
C2147      H2152   1.086       .  S
C2147      C2148   1.360       .  D
C2148      C2209   1.454       .  S
C2153      C2154   1.548       .  S
C2153      C2159   1.519       .  S
C2153      C2157   1.519       .  S
C2154      H2161   1.086       .  S
C2154      C2155   1.364       .  D
C2155      C2156   1.532       .  S
C2155      C2192   1.480       .  S
C2156      C2160   1.530       .  S
C2156      C2158   1.534       .  S
C2156      H2162   1.105       .  S
C2157      H2163   1.087       .  S
C2157      C2158   1.357       .  D
C2158      C2265   1.463       .  S
C2159      H2164   1.086       .  S
C2159      C2160   1.354       .  D
C2160      C2178   1.454       .  S
C2165      C2166   1.544       .  S
C2165      C2171   1.517       .  S
C2165      C2169   1.525       .  S
C2166      H2173   1.085       .  S
C2166      C2167   1.374       .  D
C2167      C2168   1.544       .  S
C2167      C2293   1.498       .  S
C2168      C2172   1.532       .  S
C2168      C2170   1.534       .  S
C2168      H2174   1.101       .  S
C2169      H2175   1.087       .  S
C2169      C2170   1.351       .  D
C2170      C2220   1.464       .  S
C2171      H2176   1.087       .  S
C2171      C2172   1.352       .  D
C2172      C2181   1.458       .  S
C2177      C2178   1.397       .  A
C2177      C2182   1.388       .  A
C2177      H2184   1.085       .  S
C2178      C2179   1.410       .  A
C2179      C2180   1.391       .  A
C2179      N2186   1.433       .  S
C2180      C2181   1.402       .  A
C2180      H2185   1.084       .  S
C2181      C2182   1.403       .  A
C2182      N2183   1.431       .  S
N2183      H2187   1.045       .  S
N2183      H2188   1.045       .  S
N2186      H2189   1.045       .  S
N2186      H2190   1.045       .  S
C2191      C2192   1.408       .  A
C2191      C2196   1.401       .  A
C2191      H2198   1.084       .  S
C2192      C2193   1.412       .  A
C2193      C2194   1.384       .  A
C2193      N2200   1.433       .  S
C2194      C2195   1.396       .  A
C2194      H2199   1.072       .  S
C2195      C2196   1.418       .  A
C2196      N2197   1.434       .  S
N2197      H2201   1.042       .  S
N2197      H2202   1.046       .  S
N2200      H2203   1.048       .  S
N2200      H2204   1.036       .  S
C2205      C2206   1.397       .  A
C2205      C2210   1.396       .  A
C2205      H2212   1.081       .  S
C2206      C2207   1.407       .  A
C2207      C2208   1.400       .  A
C2207      N2214   1.438       .  S
C2208      C2209   1.399       .  A
C2208      H2213   1.084       .  S
C2209      C2210   1.404       .  A
C2210      N2211   1.438       .  S
N2211      H2215   1.046       .  S
N2211      H2216   1.045       .  S
N2214      H2217   1.045       .  S
N2214      H2218   1.046       .  S
C2219      C2220   1.397       .  A
C2219      C2224   1.399       .  A
C2219      H2226   1.081       .  S
C2220      C2221   1.414       .  A
C2221      C2222   1.399       .  A
C2221      N2228   1.440       .  S
C2222      C2223   1.399       .  A
C2222      H2227   1.077       .  S
C2223      C2224   1.405       .  A
C2224      N2225   1.436       .  S
N2225      H2229   1.045       .  S
N2225      H2230   1.045       .  S
N2228      H2231   1.041       .  S
N2228      H2232   1.045       .  S
C2233      C2234   1.396       .  A
C2233      C2238   1.391       .  A
C2233      H2240   1.081       .  S
C2234      C2235   1.421       .  A
C2235      C2236   1.398       .  A
C2235      N2242   1.440       .  S
C2236      C2237   1.400       .  A
C2236      H2241   1.084       .  S
C2237      C2238   1.403       .  A
C2238      N2239   1.433       .  S
N2239      H2243   1.046       .  S
N2239      H2244   1.044       .  S
N2242      H2245   1.042       .  S
N2242      H2246   1.044       .  S
C2247      C2248   1.398       .  A
C2247      C2252   1.397       .  A
C2247      H2254   1.081       .  S
C2248      C2249   1.409       .  A
C2249      C2250   1.400       .  A
C2249      N2256   1.438       .  S
C2250      C2251   1.398       .  A
C2250      H2255   1.084       .  S
C2251      C2252   1.404       .  A
C2252      N2253   1.437       .  S
N2253      H2257   1.045       .  S
N2253      H2258   1.046       .  S
N2256      H2259   1.044       .  S
C2261      C2262   1.400       .  A
C2261      C2266   1.394       .  A
C2261      H2268   1.084       .  S
C2262      C2263   1.408       .  A
C2263      C2264   1.399       .  A
C2263      N2270   1.437       .  S
C2264      C2265   1.398       .  A
C2264      H2269   1.084       .  S
C2265      C2266   1.410       .  A
C2266      N2267   1.434       .  S
N2267      H2271   1.046       .  S
N2267      H2272   1.046       .  S
N2270      H2273   1.046       .  S
N2270      H2274   1.045       .  S
C2275      C2276   1.402       .  A
C2275      C2280   1.396       .  A
C2275      H2282   1.084       .  S
C2276      C2277   1.406       .  A
C2277      C2278   1.393       .  A
C2277      N2284   1.433       .  S
C2278      C2279   1.401       .  A
C2278      H2283   1.079       .  S
C2279      C2280   1.409       .  A
C2280      N2281   1.430       .  S
N2281      H2285   1.044       .  S
N2281      H2286   1.046       .  S
N2284      H2287   1.046       .  S
N2284      H2288   1.046       .  S
C2289      C2290   1.395       .  A
C2289      C2294   1.387       .  A
C2289      H2296   1.074       .  S
C2290      C2291   1.420       .  A
C2291      C2292   1.408       .  A
C2291      N2298   1.439       .  S
C2292      C2293   1.409       .  A
C2292      H2297   1.082       .  S
C2293      C2294   1.415       .  A
C2294      N2295   1.429       .  S
N2295      H2299   1.046       .  S
N2295      H2300   1.046       .  S
N2298      H2301   1.046       .  S
N2298      H2302   1.045       .  S
C2303      C2304   1.397       .  A
C2303      C2308   1.392       .  A
C2303      H2310   1.081       .  S
C2304      C2305   1.408       .  A
C2305      C2306   1.391       .  A
C2305      N2312   1.428       .  S
C2306      C2307   1.398       .  A
C2306      H2311   1.084       .  S
C2307      C2308   1.408       .  A
C2308      N2309   1.430       .  S
N2309      H2313   1.045       .  S
N2309      H2314   1.043       .  S
N2312      H2315   1.044       .  S
N2312      H2316   1.044       .  S
C2317      C2318   1.399       .  A
C2317      C2322   1.391       .  A
C2317      H2324   1.079       .  S
C2318      C2319   1.419       .  A
C2319      C2320   1.397       .  A
C2319      N2326   1.433       .  S
C2320      C2321   1.404       .  A
C2320      H2325   1.084       .  S
C2321      C2322   1.414       .  A
C2322      N2323   1.432       .  S
N2323      H2327   1.040       .  S
N2323      H2328   1.045       .  S
N2326      H2329   1.044       .  S
C2331      C2332   1.395       .  A
C2331      C2336   1.399       .  A
C2331      H2338   1.084       .  S
C2332      C2333   1.405       .  A
C2333      C2334   1.399       .  A
C2333      N2340   1.431       .  S
C2334      C2335   1.401       .  A
C2334      H2339   1.082       .  S
C2335      C2336   1.408       .  A
C2336      N2337   1.433       .  S
N2337      H2341   1.045       .  S
N2337      H2342   1.046       .  S
N2340      H2343   1.044       .  S
N2340      H2344   1.045       .  S
