geometry optimzed in LAMMPS
_audit_creation_date              2020-11-30 
_audit_creation_method            'lammps2cif' 
_symmetry_space_group_name_H-M    'P1' 
_symmetry_Int_Tables_number       1 
_symmetry_cell_setting            triclinic 
loop_ 
_symmetry_equiv_pos_as_xyz 
  x,y,z 
_cell_length_a                    31.030103944753883 
_cell_length_b                    30.430639537215225 
_cell_length_c                    31.48416379891884 
_cell_angle_alpha                 87.99627725890312 
_cell_angle_beta                  90.18647774093027 
_cell_angle_gamma                 91.49462949721651 
loop_ 
_atom_site_label 
_atom_site_type_symbol 
_atom_site_fract_x 
_atom_site_fract_y 
_atom_site_fract_z 
_atom_site_charge 
C1          C  0.34243985  0.64861255  0.62480415    -0.02180
C2          C  0.44664055  0.63596155  0.48903862     0.42770
N3          N  0.49652737  0.59158684  0.50095914     0.01660
C4          C  0.58447467  0.45071724  0.36662515    -0.06220
H5          H  0.40870294  0.44000731  0.38200018     0.07150
C6          C  0.41953602  0.39438542  0.51805553    -0.06570
Co7        Co  0.52167701  0.55087389  0.42318228     0.74180
N8          N  0.46203441  0.48399531  0.39202245    -0.25750
Co9        Co  0.50275055  0.44138558  0.42353855     0.74070
C10         C  0.39032263  0.39600071  0.48189136     0.42870
N11         N  0.47577935  0.47718467  0.56424001     0.01270
N12         N  0.45292985  0.42155381  0.46343577     0.01380
N13         N  0.58677781  0.52495644  0.36239727    -0.46600
H14         H  0.44616230  0.62478716  0.41752905     0.07140
N15         N  0.46454380  0.52536459  0.40232549     0.01660
N16         N  0.54370016  0.39932375  0.45531254     0.01400
C17         C  0.59779362  0.36184319  0.47178045     0.43010
N18         N  0.48124056  0.52005875  0.56598860    -0.25200
C19         C  0.61668175  0.58330816  0.43628298    -0.06120
N20         N  0.47224429  0.61924831  0.51964311    -0.46310
N21         N  0.57601967  0.37928994  0.43852597    -0.46530
C22         C  0.64589622  0.58454404  0.47245254     0.42780
N23         N  0.55453328  0.51038709  0.38547661     0.01650
N24         N  0.57205835  0.50366617  0.56128937    -0.25230
N25         N  0.49012202  0.59149150  0.45987249    -0.25720
N26         N  0.56547215  0.46201204  0.55466186     0.01290
H27         H  0.62755631  0.54122871  0.58174954     0.07180
H28         H  0.58546429  0.36315889  0.54274783     0.07220
N29         N  0.55174200  0.46733207  0.38807500    -0.25770
N30         N  0.45688606  0.41234682  0.50385444    -0.25380
N31         N  0.58251327  0.56527962  0.49306359     0.01660
C32         C  0.39855900  0.50587288  0.40916327     0.43050
C33         C  0.44730212  0.53571619  0.58684867    -0.06630
N34         N  0.54453456  0.39586503  0.49690372    -0.25380
H35         H  0.41166152  0.38661096  0.55026724     0.07200
N36         N  0.42678447  0.53952389  0.41405595    -0.46600
H37         H  0.44184918  0.56999374  0.59153485     0.07190
C38         C  0.63036416  0.46705076  0.57505591     0.42890
C39         C  0.45962019  0.61957110  0.44896930    -0.06130
Co40       Co  0.53313355  0.54690582  0.53202932     0.73820
N41         N  0.43996041  0.46237671  0.58076898    -0.46320
C42         C  0.60728581  0.48968542  0.34969862     0.43150
N43         N  0.62241012  0.56940874  0.50567128    -0.46310
Co44       Co  0.51077297  0.43594531  0.53144297     0.73890
C45         C  0.57587147  0.36990716  0.51020506    -0.06640
C46         C  0.42085903  0.47262083  0.38705200    -0.06200
N47         N  0.57825676  0.57106472  0.45181777    -0.25730
N48         N  0.41334720  0.41615565  0.45116966    -0.46490
H49         H  0.59146496  0.41646998  0.36416594     0.07160
C50         C  0.61169454  0.50988145  0.57712794    -0.06610
Cl51       Cl  0.51713189  0.49399985  0.47746114    -0.49610
C52         C  0.41934163  0.49637857  0.59512444     0.42920
H53         H  0.62441769  0.58347600  0.40370591     0.07130
N54         N  0.60003300  0.43965368  0.56049799    -0.46320
C55         C  0.68613399  0.31658266  0.64134211    -0.02180
C56         C  0.36670025  0.33132810  0.33168075    -0.02180
C57         C  0.70107674  0.63209616  0.33332321    -0.02180
C58         C  0.35432831  0.63307943  0.33572130    -0.02180
C59         C  0.69377826  0.32150236  0.34805308    -0.02180
C60         C  0.35529861  0.34316112  0.63643977    -0.02180
C61         C  0.68231778  0.63514753  0.62084297    -0.02180
C62         C  0.29591593  0.22603775  0.97930169     0.00870
C63         C  0.26010322  0.25159457  0.98538317     0.00870
C64         C  0.27021173  0.98423900  0.23419986     0.00870
C65         C  0.30313605  0.98581712  0.20387653     0.00870
C66         C  0.02987670  0.21293750  0.23993615     0.00870
C67         C  0.02689937  0.24703604  0.20885294     0.00870
C68         C  0.53021489  0.25843824  0.25870871     0.00870
C69         C  0.52725143  0.23399633  0.22228275     0.00870
C70         C  0.28814342  0.24925359  0.47842176     0.00870
C71         C  0.25678881  0.21547557  0.47649043     0.00870
C72         C  0.29270610  0.48939450  0.23579115     0.00870
C73         C  0.25672089  0.48929077  0.20903362     0.00870
C74         C  0.29566855  0.75088005  0.98449122     0.00870
C75         C  0.25648120  0.72805876  0.99221893     0.00870
C76         C  0.78720821  0.26107322  0.98070812     0.00870
C77         C  0.75539227  0.22883365  0.98645459     0.00870
C78         C  0.02367840  0.23949893  0.75185346     0.00870
C79         C  0.02279869  0.20576527  0.72363563     0.00870
C80         C  0.76316981  0.48191467  0.24967428     0.00870
C81         C  0.78563097  0.47880533  0.21236308     0.00870
C82         C  0.27827821  0.48553764  0.71924991     0.00870
C83         C  0.25194354  0.48779274  0.75473620     0.00870
C84         C  0.85915400  0.64045486  0.84100948    -0.02180
C85         C  0.87587506  0.55388739  0.00451116     0.42770
N86         N  0.94169529  0.53959944  0.99853748     0.01660
C87         C  0.04660320  0.38642029  0.89010947    -0.06220
H88         H  0.97604779  0.32482662  0.01387450     0.07150
C89         C  0.05484048  0.45862933  0.09494876    -0.06570
Co90       Co  0.95667676  0.46939919  0.93807294     0.74180
N91         N  0.97718217  0.39249280  0.99421209    -0.25750
Co92       Co  0.03943157  0.40874573  0.97968588     0.74070
C93         C  0.02862704  0.41961285  0.10405992     0.42870
N94         N  0.04945435  0.54868873  0.04968550     0.01270
N95         N  0.05451526  0.41666499  0.04168166     0.01380
N96         N  0.00420535  0.43818025  0.86056311    -0.46600
H97         H  0.85599104  0.49086281  0.96938083     0.07140
N98         N  0.94685413  0.41956921  0.98306631     0.01660
N99         N  0.10141490  0.42918000  0.96351243     0.01400
C100        C  0.16959662  0.42691823  0.97154269     0.43010
N101        N  0.02003734  0.57121966  0.03040958    -0.25200
C102        C  0.98151541  0.53043973  0.85578739    -0.06120
N103        N  0.91517250  0.56334706  0.02000845    -0.46310
N104        N  0.13414224  0.40315993  0.95996972    -0.46530
C105        C  0.99693907  0.57667827  0.85248217     0.42780
N106        N  0.99434936  0.43017395  0.90083489     0.01650
N107        N  0.05934584  0.58181465  0.95528382    -0.25230
N108        N  0.92226532  0.50808362  0.97810020    -0.25720
N109        N  0.09146756  0.55572520  0.96391550     0.01290
H110        H  0.05544864  0.65135568  0.95326835     0.07180
H111        H  0.17587328  0.49895300  0.98463148     0.07220
N112        N  0.02173600  0.40310039  0.91881142    -0.25770
N113        N  0.06761164  0.45550601  0.05459667    -0.25380
N114        N  0.97473250  0.56065775  0.91520201     0.01660
C115        C  0.91219286  0.35956009  0.99805293     0.43050
C116        C  0.00689390  0.60251153  0.05320672    -0.06630
N117        N  0.11497741  0.46873925  0.97287290    -0.25380
H118        H  0.05650333  0.48712711  0.11389882     0.07200
N119        N  0.90841515  0.40323024  0.99142578    -0.46600
H120        H  0.98219342  0.62505289  0.04312034     0.07190
C121        C  0.12140648  0.61954033  0.96497029     0.42890
C122        C  0.88022783  0.51068719  0.98512240    -0.06130
Co123      Co  0.99837597  0.56320158  0.97449569     0.73820
N124        N  0.05338940  0.55989342  0.08994071    -0.46320
C125        C  0.03852034  0.41378944  0.85249574     0.43150
N126        N  0.98622687  0.59307459  0.88944448    -0.46310
Co127      Co  0.08233279  0.50703378  0.01127083     0.73890
C128        C  0.15760019  0.47226649  0.97069887    -0.06640
C129        C  0.95854116  0.35449301  0.00721630    -0.06200
N130        N  0.96992974  0.52314536  0.89680042    -0.25730
N131        N  0.03267192  0.39385200  0.07084437    -0.46490
H132        H  0.07515377  0.36830499  0.89804290     0.07160
C133        C  0.07539712  0.62280742  0.95313195    -0.06610
Cl134      Cl  0.01937736  0.48701600  0.97558642    -0.49610
C135        C  0.02646348  0.59395751  0.09383622     0.42920
H136        H  0.98275027  0.50660359  0.83140291     0.07130
N137        N  0.12889502  0.57654726  0.96210976    -0.46320
C138        C  0.87331166  0.33569511  0.13921701    -0.02180
C139        C  0.17026270  0.32983362  0.82821615    -0.02180
C140        C  0.17300420  0.64261292  0.83555615    -0.02180
C141        C  0.87172137  0.32291764  0.82963463    -0.02180
C142        C  0.86751959  0.64340086  0.14266828    -0.02180
C143        C  0.76999996  0.48097432  0.70759058     0.00870
C144        C  0.80002884  0.48270308  0.74051028     0.00870
C145        C  0.16580446  0.64666023  0.13574961    -0.02180
C146        C  0.18638633  0.32936848  0.12505569    -0.02180
C147        C  0.26949997  0.97782598  0.71570298     0.00870
C148        C  0.29885403  0.97489017  0.75020174     0.00870
C149        C  0.52306699  0.73007195  0.22832932     0.00870
C150        C  0.52971913  0.70339977  0.26558191     0.00870
C151        C  0.51546275  0.25649620  0.71449448     0.00870
C152        C  0.51745034  0.22371073  0.74689521     0.00870
C153        C  0.66308658  0.15221545  0.83125087    -0.02180
C154        C  0.38981431  0.05415753  0.98231848     0.42770
N155        N  0.44100275  0.01694331  0.96086276     0.01660
C156        C  0.55930751  0.91486939  0.09189127    -0.06220
H157        H  0.60007451  0.06043592  0.08260252     0.07150
C158        C  0.63622677  0.08057705  0.95101704    -0.06570
Co159      Co  0.48053893  0.96024794  0.02288859     0.74180
N160        N  0.55639853  0.01049121  0.05962841    -0.25750
Co161      Co  0.58537648  0.97257466  0.01809133     0.74070
C162        C  0.65221612  0.08690339  0.99286671     0.42870
N163        N  0.54250331  0.05432867  0.90413971     0.01270
N164        N  0.61926901  0.02556190  0.99367613     0.01380
N165        N  0.50053587  0.88180285  0.06731594    -0.46600
H166        H  0.39688574  0.02698024  0.05116114     0.07140
N167        N  0.51449089  0.00370117  0.06289483     0.01660
N168        N  0.59323794  0.93449073  0.96606429     0.01400
C169        C  0.64381180  0.89078177  0.97225641     0.43010
N170        N  0.50108144  0.04771464  0.89805948    -0.25200
C171        C  0.44146203  0.87762124  0.99079322    -0.06120
N172        N  0.41203576  0.04402373  0.94830467    -0.46310
N173        N  0.60217032  0.89484347  0.97803790    -0.46530
C174        C  0.44396608  0.85869115  0.94999639     0.42780
N175        N  0.51867827  0.90732887  0.03798567     0.01650
N176        N  0.51147208  0.96141973  0.87298377    -0.25230
N177        N  0.44058841  0.00852503  0.00197997    -0.25720
N178        N  0.55277930  0.96998847  0.86949653     0.01290
H179        H  0.46826312  0.91619272  0.84492802     0.07180
H180        H  0.68763942  0.93759299  0.92958737     0.07220
N181        N  0.55633673  0.92167687  0.04983832    -0.25770
N182        N  0.61612944  0.04138538  0.95493360    -0.25380
N183        N  0.45547544  0.92749568  0.94146608     0.01660
C184        C  0.52902624  0.05869699  0.10087066     0.43050
C185        C  0.48263549  0.08659969  0.89215419    -0.06630
N186        N  0.62032937  0.95256491  0.93885290    -0.25380
H187        H  0.63878158  0.10174293  0.92316815     0.07200
N188        N  0.49684952  0.03241354  0.08708768    -0.46600
H189        H  0.44871886  0.09195708  0.88932003     0.07190
C190        C  0.53974722  0.91685724  0.82924300     0.42890
C191        C  0.40823165  0.03070690  0.01905311    -0.06130
Co192      Co  0.47556487  0.98805157  0.91697118     0.73820
N193        N  0.55200051  0.09545733  0.90991879    -0.46320
C194        C  0.51895491  0.89301851  0.10372519     0.43150
N195        N  0.45151447  0.89125960  0.92060090    -0.46310
Co196      Co  0.58501691  0.00559737  0.91425248     0.73890
C197        C  0.65680358  0.92957449  0.94418007    -0.06640
C198        C  0.56863658  0.04495925  0.08221046    -0.06200
N199        N  0.45168446  0.91977176  0.98255581    -0.25730
N200        N  0.64123067  0.05188536  0.01772235    -0.46490
H201        H  0.58080995  0.93320717  0.11214837     0.07160
C202        C  0.49964330  0.93153498  0.84567278    -0.06610
Cl203      Cl  0.53079795  0.98393645  0.96796849    -0.49610
C204        C  0.51738703  0.11879084  0.89878124     0.42920
H205        H  0.43908355  0.86105685  0.02160110     0.07130
N206        N  0.57034461  0.94682503  0.84009997    -0.46320
C207        C  0.67474828  0.82359513  0.13487855    -0.02180
C208        C  0.36636280  0.79696158  0.81612221    -0.02180
C209        C  0.36236891  0.13626021  0.84176814    -0.02180
C210        C  0.65174132  0.79568820  0.82567199    -0.02180
C211        C  0.38093495  0.82186950  0.14700656    -0.02180
C212        C  0.51786985  0.71472286  0.73300087     0.00870
C213        C  0.51479938  0.68925678  0.69739215     0.00870
C214        C  0.39087628  0.15403956  0.13550828    -0.02180
C215        C  0.68175175  0.15555182  0.14243706    -0.02180
C216        C  0.01091723  0.71781675  0.22194019     0.00870
C217        C  0.01508507  0.74895914  0.25229629     0.00870
C218        C  0.75173509  0.98448297  0.21396488     0.00870
C219        C  0.78091200  0.98212776  0.24757190     0.00870
C220        C  0.77234140  0.22837887  0.49336246     0.00870
C221        C  0.80198551  0.19459347  0.49157780     0.00870
C222        C  0.27549079  0.72959841  0.47623658     0.00870
C223        C  0.24564242  0.76248036  0.47540199     0.00870
C224        C  0.87627249  0.13418170  0.32827299    -0.02180
C225        C  0.94722018  0.12344754  0.49021435     0.42770
N226        N  0.00076332  0.08211248  0.49001107     0.01660
C227        C  0.96315697  0.86360943  0.48356762    -0.06220
H228        H  0.01198587  0.92187922  0.62425375     0.07150
C229        C  0.14198143  0.97439894  0.57080377    -0.06570
Co230      Co  0.96007449  0.99462186  0.48751008     0.74180
N231        N  0.99282368  0.94348140  0.56054696    -0.25750
Co232      Co  0.03376491  0.91853715  0.51575049     0.74070
C233        C  0.11384339  0.96704809  0.60773924     0.42870
N234        N  0.12227430  0.04864739  0.49580335     0.01270
N235        N  0.08560243  0.93593038  0.55391718     0.01380
N236        N  0.91260904  0.91409475  0.47403932    -0.46600
H237        H  0.90574433  0.07044993  0.52529805     0.07140
N238        N  0.96351128  0.97120593  0.54746725     0.01660
N239        N  0.07389046  0.89687054  0.46938417     0.01400
C240        C  0.12424167  0.85160267  0.46990068     0.43010
N241        N  0.09054407  0.07443433  0.48539060    -0.25200
C242        C  0.93396260  0.99670965  0.39656924    -0.06120
N243        N  0.99056517  0.12377065  0.48825801    -0.46310
N244        N  0.08118516  0.85464602  0.46846937    -0.46530
C245        C  0.96100106  0.99922884  0.35900205     0.42780
N246        N  0.95143779  0.93178962  0.47032410     0.01650
N247        N  0.08483588  0.03062363  0.40267628    -0.25230
N248        N  0.96925591  0.05741005  0.50593306    -0.25720
N249        N  0.11642816  0.00823203  0.41941324     0.01290
H250        H  0.06613183  0.04056242  0.33628175     0.07180
H251        H  0.17235710  0.90395902  0.44299346     0.07220
N252        N  0.98141616  0.90311869  0.47892143    -0.25770
N253        N  0.11834951  0.95952755  0.53885700    -0.25380
N254        N  0.99114440  0.03622159  0.40798831     0.01660
C255        C  0.95918717  0.97209262  0.61424102     0.43050
C256        C  0.10155108  0.11539957  0.49333966    -0.06630
N257        N  0.10825120  0.92078204  0.45837989    -0.25380
H258        H  0.16704919  0.99960746  0.56682201     0.07200
N259        N  0.94196201  0.98787268  0.57811763    -0.46600
H260        H  0.08061382  0.14232979  0.48630265     0.07190
C261        C  0.12553750  0.99989061  0.35342202     0.42890
C262        C  0.93702861  0.08315963  0.51548780    -0.06130
Co263      Co  0.04161878  0.05712455  0.44558679     0.73820
N264        N  0.15765870  0.07177276  0.50377278    -0.46320
C265        C  0.91737994  0.87284929  0.48922324     0.43150
N266        N  0.99478725  0.02586394  0.36784647    -0.46310
Co267      Co  0.11743728  0.98433324  0.47838379     0.73890
C268        C  0.13950520  0.89339695  0.44956754    -0.06640
C269        C  0.99166397  0.94102558  0.60323078    -0.06200
N270        N  0.95752298  0.01641464  0.42586480    -0.25730
N271        N  0.08276700  0.93871450  0.59543040    -0.46490
H272        H  0.98089814  0.83664338  0.49746867     0.07160
C273        C  0.08777953  0.02713521  0.35998867    -0.06610
Cl274      Cl  0.03832066  0.98841515  0.48170860    -0.49610
C275        C  0.14861632  0.11442954  0.49339928     0.42920
H276        H  0.90901048  0.97211227  0.40381167     0.07130
N277        N  0.14132845  0.99121893  0.39201207    -0.46320
C278        C  0.87666588  0.84584799  0.33320582    -0.02180
C279        C  0.17398708  0.83416586  0.30898950    -0.02180
C280        C  0.17550239  0.82373601  0.63851477    -0.02180
C281        C  0.87138628  0.11018378  0.65378163    -0.02180
C282        C  0.85769646  0.82593709  0.65712968    -0.02180
C283        C  0.80026498  0.75777390  0.49172869     0.00870
C284        C  0.77095150  0.72206696  0.49177278     0.00870
C285        C  0.19322763  0.14140596  0.32032582    -0.02180
C286        C  0.17260314  0.12898798  0.63774612    -0.02180
C287        C  0.02068963  0.74942763  0.72807700     0.00870
C288        C  0.02337158  0.71711086  0.76037793     0.00870
C289        C  0.76508873  0.97480798  0.73977753     0.00870
C290        C  0.72984368  0.97668417  0.76789386     0.00870
C291        C  0.77386706  0.70371066  0.98361074     0.00870
C292        C  0.73883541  0.73068596  0.98549666     0.00870
C293        C  0.89446081  0.80612184  0.68736817    -0.05150
C294        C  0.93291092  0.83204199  0.69306464    -0.32580
C295        C  0.97283893  0.81423872  0.70366175     0.36670
C296        C  0.97698753  0.76881351  0.71324762    -0.05510
C297        C  0.93786769  0.74307875  0.71077265    -0.32480
C298        C  0.89699192  0.76202562  0.70214724     0.36570
H299        H  0.93434892  0.86618222  0.68219631     0.16940
O300        O  0.00784910  0.84226717  0.70087842    -0.59980
H301        H  0.93838974  0.70785612  0.71618684     0.16960
O302        O  0.86009206  0.73668706  0.70722250    -0.60080
H303        H  0.84912990  0.74344782  0.73574760     0.43950
H304        H  0.01553225  0.84413475  0.67028191     0.43910
C305        C  0.82949363  0.85892820  0.68524519    -0.05150
C306        C  0.85007672  0.88893652  0.71278301    -0.32580
C307        C  0.82911002  0.92388956  0.73198198     0.36670
C308        C  0.78495209  0.93130778  0.72551842    -0.05510
C309        C  0.76203450  0.89737858  0.70464299    -0.32480
C310        C  0.78328010  0.86032243  0.68787289     0.36570
H311        H  0.88329027  0.88614605  0.72099314     0.16940
O312        O  0.85292325  0.95079536  0.75754316    -0.59980
H313        H  0.72738052  0.89899401  0.70165204     0.16960
O314        O  0.75801902  0.82485877  0.67693301    -0.60080
H315        H  0.75994973  0.80356730  0.70139766     0.43950
H316        H  0.84994249  0.93736730  0.78657115     0.43910
C317        C  0.82991406  0.79521750  0.62546906    -0.05150
C318        C  0.79846968  0.81684906  0.59914175    -0.32580
C319        C  0.78939161  0.80628493  0.55645022     0.36670
C320        C  0.81314324  0.77448806  0.53585909    -0.05510
C321        C  0.84209275  0.75066732  0.56144683    -0.32480
C322        C  0.84751841  0.75770828  0.60556611     0.36570
H323        H  0.78463992  0.84699478  0.60879664     0.16940
O324        O  0.75731766  0.82791619  0.53474379    -0.59980
H325        H  0.85910417  0.72406543  0.54756854     0.16960
O326        O  0.87368121  0.72927062  0.62713706    -0.60080
H327        H  0.85651179  0.70144045  0.63068175     0.43950
H328        H  0.76387160  0.85983186  0.53700888     0.43910
C329        C  0.78772894  0.01635218  0.72157586    -0.05150
C330        C  0.77581659  0.03355139  0.68120662    -0.32580
C331        C  0.79297277  0.07452747  0.66546476     0.36670
C332        C  0.83126638  0.09337940  0.68293772    -0.05510
C333        C  0.83816780  0.07996204  0.72626994    -0.32480
C334        C  0.81671622  0.04243123  0.74547422     0.36570
H335        H  0.74899261  0.01827068  0.66468949     0.16940
O336        O  0.76792503  0.09891332  0.63811014    -0.59980
H337        H  0.86175568  0.09692473  0.74529126     0.16960
O338        O  0.82395391  0.03168896  0.78757908    -0.60080
H339        H  0.85554782  0.02844230  0.79064024     0.43950
H340        H  0.75225246  0.11912234  0.65627632     0.43910
C341        C  0.06346201  0.76706710  0.70844890    -0.05150
C342        C  0.08964723  0.73972203  0.68437995    -0.32580
C343        C  0.13217637  0.75316957  0.67202295     0.36670
C344        C  0.14525404  0.79793352  0.67303903    -0.05510
C345        C  0.12426575  0.82016735  0.70568527    -0.32480
C346        C  0.08446719  0.80529626  0.72339860     0.36570
H347        H  0.07858109  0.70660588  0.67814785     0.16940
O348        O  0.16200884  0.72172463  0.66513303    -0.59980
H349        H  0.13988087  0.84738157  0.72069829     0.16960
O350        O  0.06793721  0.82625478  0.75758813    -0.60080
H351        H  0.07039000  0.85833371  0.75089946     0.43950
H352        H  0.17452365  0.71457890  0.69349370     0.43910
C353        C  0.85875051  0.82297585  0.37538366    -0.05150
C354        C  0.85918372  0.84279854  0.41496983    -0.32580
C355        C  0.83568352  0.82460663  0.45020773     0.36670
C356        C  0.81986153  0.78054551  0.45103679    -0.05510
C357        C  0.82401126  0.75927396  0.41217384    -0.32480
C358        C  0.83784450  0.78117563  0.37442426     0.36570
H359        H  0.87380491  0.87494103  0.41736617     0.16940
O360        O  0.82609652  0.85159011  0.48234948    -0.59980
H361        H  0.81805818  0.72530269  0.40959494     0.16960
O362        O  0.83395879  0.75946622  0.33709044    -0.60080
H363        H  0.80545059  0.76766290  0.32540028     0.43950
H364        H  0.80465659  0.87219763  0.47027126     0.43910
C365        C  0.14046336  0.08918365  0.63333642    -0.05150
C366        C  0.12187227  0.07815452  0.59503210    -0.32580
C367        C  0.09261589  0.04259478  0.59429882     0.36670
C368        C  0.09905168  0.00834194  0.62433299    -0.05510
C369        C  0.11071984  0.02008391  0.66469264    -0.32480
C370        C  0.12490492  0.06350612  0.67011229     0.36570
H371        H  0.12618244  0.10003337  0.56850764     0.16940
O372        O  0.06578270  0.03618279  0.56053933    -0.59980
H373        H  0.10890099  0.99639226  0.69112078     0.16960
O374        O  0.12129329  0.08121572  0.70944093    -0.60080
H375        H  0.12716311  0.05773043  0.73121618     0.43950
H376        H  0.04534606  0.06063277  0.56092836     0.43910
C377        C  0.17153494  0.12122286  0.36165026    -0.05150
C378        C  0.13957678  0.14691212  0.38018310    -0.32580
C379        C  0.14008764  0.15528160  0.42315187     0.36670
C380        C  0.16597115  0.13006133  0.45138367    -0.05510
C381        C  0.19620181  0.10285631  0.43361179    -0.32480
C382        C  0.19517861  0.09446918  0.39076475     0.36570
H383        H  0.11865698  0.16750207  0.36117777     0.16940
O384        O  0.11347700  0.18701473  0.43724677    -0.59980
H385        H  0.21602712  0.08198369  0.45381808     0.16960
O386        O  0.21169220  0.05548240  0.37998992    -0.60080
H387        H  0.19337331  0.04569430  0.35643120     0.43950
H388        H  0.12700416  0.21564463  0.42841782     0.43910
C389        C  0.90028287  0.86338707  0.53251611    -0.05150
C390        C  0.91811921  0.82856224  0.55498701    -0.32580
C391        C  0.91524924  0.82465660  0.59848565     0.36670
C392        C  0.88419251  0.84976287  0.62063781    -0.05510
C393        C  0.86678810  0.88609651  0.59826136    -0.32480
C394        C  0.87492324  0.89329620  0.55469883     0.36570
H395        H  0.93613284  0.80416690  0.53895461     0.16940
O396        O  0.93978831  0.79277838  0.61834926    -0.59980
H397        H  0.84330070  0.90618685  0.61318818     0.16960
O398        O  0.85486835  0.92728898  0.53352438    -0.60080
H399        H  0.86908150  0.95456965  0.54356448     0.43950
H400        H  0.94012553  0.76647126  0.60061248     0.43910
C401        C  0.95977317  0.00167912  0.64904301    -0.05150
C402        C  0.97340804  0.04432540  0.63616795    -0.32580
C403        C  0.94274453  0.07693006  0.62948859     0.36670
C404        C  0.89996523  0.07000911  0.64527430    -0.05510
C405        C  0.89001703  0.02797486  0.66400367    -0.32480
C406        C  0.92126071  0.99662769  0.67043612     0.36570
H407        H  0.00493142  0.04940127  0.62217054     0.16940
O408        O  0.95520212  0.11592234  0.60934075    -0.59980
H409        H  0.85839031  0.01820259  0.67437426     0.16960
O410        O  0.90987073  0.95623231  0.68736642    -0.60080
H411        H  0.89642068  0.94044728  0.66350253     0.43950
H412        H  0.97845228  0.12885045  0.62703408     0.43910
C413        C  0.14740870  0.84832079  0.60508880    -0.05150
C414        C  0.17053676  0.87797214  0.57760513    -0.32580
C415        C  0.16937943  0.87325194  0.53387370     0.36670
C416        C  0.13789766  0.84517864  0.51548266    -0.05510
C417        C  0.10798873  0.82340215  0.54354674    -0.32480
C418        C  0.11082776  0.82735340  0.58767453     0.36570
H419        H  0.19706856  0.89786846  0.58943922     0.16940
O420        O  0.20150439  0.89391889  0.51022211    -0.59980
H421        H  0.08077999  0.80478473  0.53114974     0.16960
O422        O  0.07827775  0.81066853  0.61350260    -0.60080
H423        H  0.07019960  0.78105467  0.60340927     0.43950
H424        H  0.19797103  0.92594355  0.51344425     0.43910
C425        C  0.13276074  0.96385503  0.32551644    -0.05150
C426        C  0.09928906  0.93217764  0.32128644    -0.32580
C427        C  0.10856029  0.88700809  0.32190136     0.36670
C428        C  0.15186368  0.87383172  0.32831508    -0.05510
C429        C  0.18161149  0.90593720  0.34147169    -0.32480
C430        C  0.17511290  0.94907386  0.32983131     0.36570
H431        H  0.06603765  0.94215024  0.32085378     0.16940
O432        O  0.07526428  0.85692020  0.31854617    -0.59980
H433        H  0.21441314  0.89769824  0.34924311     0.16960
O434        O  0.20953760  0.97791355  0.33143665    -0.60080
H435        H  0.22229439  0.97422444  0.36028945     0.43950
H436        H  0.06221239  0.85394364  0.34718797     0.43910
C437        C  0.96756048  0.95729433  0.33925461    -0.05150
C438        C  0.94449234  0.95155697  0.30272413    -0.32580
C439        C  0.91704259  0.91523929  0.29954893     0.36670
C440        C  0.91073081  0.88440909  0.33511832    -0.05510
C441        C  0.94347777  0.88516780  0.36628908    -0.32480
C442        C  0.97381905  0.92027456  0.36641395     0.36570
H443        H  0.94406391  0.97733737  0.27826995     0.16940
O444        O  0.89527903  0.91227844  0.26198032    -0.59980
H445        H  0.94538999  0.85937203  0.39060263     0.16960
O446        O  0.00441350  0.92223024  0.39768580    -0.60080
H447        H  0.03037154  0.90929787  0.38555903     0.43950
H448        H  0.91743079  0.91108411  0.23937551     0.43910
C449        C  0.90606396  0.10982421  0.36019843    -0.05150
C450        C  0.88525809  0.08457282  0.39271944    -0.32580
C451        C  0.89318274  0.09422504  0.43499935     0.36670
C452        C  0.92885124  0.12219013  0.44579679    -0.05510
C453        C  0.95661230  0.13638775  0.41193555    -0.32480
C454        C  0.94710212  0.12695929  0.36978596     0.36570
H455        H  0.85632889  0.06545899  0.38571170     0.16940
O456        O  0.86507555  0.07629383  0.46460640    -0.59980
H457        H  0.98695593  0.15344546  0.41799984     0.16960
O458        O  0.97817415  0.13119976  0.33872011    -0.60080
H459        H  0.00020782  0.15322866  0.34765052     0.43950
H460        H  0.85185451  0.10164351  0.47778070     0.43910
C461        C  0.22850079  0.78233557  0.43396098    -0.05150
C462        C  0.18443355  0.77966393  0.42451209    -0.32580
C463        C  0.16778105  0.79534177  0.38513876     0.36670
C464        C  0.19514480  0.81229001  0.35129516    -0.05510
C465        C  0.23921999  0.81766594  0.36337393    -0.32480
C466        C  0.25574094  0.80259793  0.40304711     0.36570
H467        H  0.16231373  0.76541735  0.44802793     0.16940
O468        O  0.12382917  0.79436954  0.38049845    -0.59980
H469        H  0.26148072  0.83784108  0.34538500     0.16960
O470        O  0.29848042  0.81038261  0.41237256    -0.60080
H471        H  0.31498918  0.79546420  0.39037189     0.43950
H472        H  0.11395715  0.82172222  0.39290524     0.43910
C473        C  0.22829245  0.77721874  0.51750388    -0.05150
C474        C  0.19553390  0.75282518  0.53793075    -0.32580
C475        C  0.18152089  0.76166514  0.57939579     0.36670
C476        C  0.20214916  0.79537025  0.60481953    -0.05510
C477        C  0.23870570  0.81627503  0.58375938    -0.32480
C478        C  0.24975725  0.80954340  0.54097085     0.36570
H479        H  0.17869958  0.72755953  0.52045003     0.16940
O480        O  0.14254263  0.74238097  0.59008928    -0.59980
H481        H  0.25519646  0.84425733  0.59645043     0.16960
O482        O  0.28282767  0.83455987  0.52286304    -0.60080
H483        H  0.27013717  0.85080445  0.49822911     0.43950
H484        H  0.14594337  0.71012776  0.58830764     0.43910
C485        C  0.84941152  0.16174802  0.36276647    -0.05150
C486        C  0.81146011  0.14164347  0.38193645    -0.32580
C487        C  0.79767799  0.14952458  0.42382313     0.36670
C488        C  0.81787713  0.18207003  0.44796833    -0.05510
C489        C  0.85225843  0.20540850  0.42926767    -0.32480
C490        C  0.86983468  0.19432087  0.38975521     0.36570
H491        H  0.79585754  0.11331860  0.36893348     0.16940
O492        O  0.76532328  0.12341075  0.44159076    -0.59980
H493        H  0.86851499  0.23044173  0.44748206     0.16960
O494        O  0.91144863  0.20925926  0.38345007    -0.60080
H495        H  0.91246317  0.24125611  0.38875229     0.43950
H496        H  0.77813374  0.09427481  0.44726721     0.43910
C497        C  0.82238552  0.17147284  0.53045110    -0.05150
C498        C  0.80860938  0.12907002  0.54465628    -0.32580
C499        C  0.82924863  0.10663024  0.57951242     0.36670
C500        C  0.85766025  0.12975805  0.60733214    -0.05510
C501        C  0.87745594  0.16754292  0.58686307    -0.32480
C502        C  0.86135950  0.18692583  0.54851614     0.36570
H503        H  0.78373443  0.11207252  0.52693990     0.16940
O504        O  0.82411930  0.06161644  0.58451656    -0.59980
H505        H  0.90710993  0.18163989  0.59861268     0.16960
O506        O  0.88317529  0.22241282  0.53010618    -0.60080
H507        H  0.90786930  0.20986388  0.51520072     0.43950
H508        H  0.79426199  0.05351836  0.57587227     0.43910
C509        C  0.79258766  0.93805933  0.26842888    -0.05150
C510        C  0.79290907  0.93592869  0.31257462    -0.32580
C511        C  0.81620472  0.90410888  0.33485341     0.36670
C512        C  0.83546922  0.86852991  0.31359943    -0.05510
C513        C  0.82174329  0.86330652  0.27146879    -0.32480
C514        C  0.80766797  0.90074825  0.24735198     0.36570
H515        H  0.78028115  0.96286367  0.33001539     0.16940
O516        O  0.82434875  0.91257138  0.37637970    -0.59980
H517        H  0.82959845  0.83403150  0.25516847     0.16960
O518        O  0.81922419  0.90487974  0.20534441    -0.60080
H519        H  0.81787874  0.87508427  0.19354466     0.43950
H520        H  0.79704931  0.90504354  0.39161190     0.43910
C521        C  0.80287409  0.02245400  0.26757653    -0.05150
C522        C  0.84767246  0.02224977  0.27337323    -0.32580
C523        C  0.87078320  0.05730041  0.29176319     0.36670
C524        C  0.85002980  0.09628804  0.30427254    -0.05510
C525        C  0.80531073  0.09770546  0.29495431    -0.32480
C526        C  0.78147050  0.06009739  0.28139877     0.36570
H527        H  0.86531596  0.99417915  0.26352019     0.16940
O528        O  0.91436268  0.05299131  0.29737875    -0.59980
H529        H  0.78796580  0.12738755  0.30034536     0.16960
O530        O  0.73733659  0.06122786  0.28076487    -0.60080
H531        H  0.72790748  0.04505044  0.30713724     0.43950
H532        H  0.92674184  0.04946984  0.26874057     0.43910
C533        C  0.14066037  0.80230463  0.28637572    -0.05150
C534        C  0.11655771  0.81824607  0.25126398    -0.32580
C535        C  0.07399646  0.80498580  0.24492873     0.36670
C536        C  0.05822879  0.76637312  0.26516475    -0.05510
C537        C  0.08662232  0.74166502  0.29082499    -0.32480
C538        C  0.12808537  0.75908235  0.30125057     0.36570
H539        H  0.12929918  0.84063534  0.22758643     0.16940
O540        O  0.04865793  0.82852950  0.21685831    -0.59980
H541        H  0.07671556  0.70909223  0.30258239     0.16960
O542        O  0.15693109  0.73270509  0.32258201    -0.60080
H543        H  0.14097766  0.71741605  0.34629754     0.43950
H544        H  0.06455243  0.83172494  0.18959365     0.43910
C545        C  0.90439683  0.81131796  0.30953964    -0.05150
C546        C  0.91374210  0.81672323  0.26570806    -0.32580
C547        C  0.95025298  0.79907336  0.24732221     0.36670
C548        C  0.97662733  0.77026801  0.27091951    -0.05510
C549        C  0.96724735  0.76238398  0.31369979    -0.32480
C550        C  0.93310629  0.78312898  0.33333765     0.36570
H551        H  0.89594944  0.83814130  0.24508415     0.16940
O552        O  0.96111513  0.81257986  0.20672471    -0.59980
H553        H  0.98798251  0.74140526  0.33280075     0.16960
O554        O  0.93104911  0.77829460  0.37678098    -0.60080
H555        H  0.92166680  0.74728322  0.38278033     0.43950
H556        H  0.96750418  0.84464759  0.20774213     0.43910
C557        C  0.73624203  0.02855770  0.19470955    -0.05150
C558        C  0.69318675  0.03133853  0.18223817    -0.32580
C559        C  0.67553733  0.07108769  0.16696358     0.36670
C560        C  0.69936381  0.11258639  0.16767652    -0.05510
C561        C  0.74134495  0.10964248  0.18418648    -0.32480
C562        C  0.76151533  0.06825086  0.19062898     0.36570
H563        H  0.67272831  0.00193322  0.18315500     0.16940
O564        O  0.63474342  0.06890797  0.14979421    -0.59980
H565        H  0.75933186  0.13936441  0.19074329     0.16960
O566        O  0.80581530  0.06640979  0.19008933    -0.60080
H567        H  0.81759741  0.09326711  0.20338048     0.43950
H568        H  0.61641538  0.05002699  0.16916221     0.43910
C569        C  0.67363490  0.84339663  0.80887815    -0.05150
C570        C  0.71075146  0.86363352  0.82823525    -0.32580
C571        C  0.72908685  0.90532087  0.81517056     0.36670
C572        C  0.70942108  0.93224492  0.78389046    -0.05510
C573        C  0.67012851  0.91609482  0.76768644    -0.32480
C574        C  0.65210293  0.87366910  0.77984013     0.36570
H575        H  0.72497983  0.84993594  0.85654392     0.16940
O576        O  0.76592896  0.92018558  0.83478121    -0.59980
H577        H  0.65270295  0.93687947  0.74529986     0.16960
O578        O  0.61103645  0.86418376  0.76597007    -0.60080
H579        H  0.61008688  0.87170212  0.73505537     0.43950
H580        H  0.75592975  0.93521832  0.86025608     0.43910
C581        C  0.67631188  0.77071497  0.86374885    -0.05150
C582        C  0.65306001  0.74821079  0.89755450    -0.32580
C583        C  0.67277943  0.73500480  0.93634516     0.36670
C584        C  0.71639826  0.74602379  0.94419672    -0.05510
C585        C  0.73988345  0.76596703  0.90976811    -0.32480
C586        C  0.72148879  0.77178686  0.86888346     0.36570
H587        H  0.61874559  0.74170894  0.89451805     0.16940
O588        O  0.64942786  0.70928760  0.96516890    -0.59980
H589        H  0.77362976  0.77443772  0.91367647     0.16960
O590        O  0.74809386  0.78034851  0.83470426    -0.60080
H591        H  0.75054593  0.75179107  0.82080822     0.43950
H592        H  0.64644686  0.72693158  0.99074988     0.43910
C593        C  0.63944737  0.76153459  0.79026181    -0.05150
C594        C  0.62042511  0.71986363  0.80295504    -0.32580
C595        C  0.58273718  0.70272075  0.78282523     0.36670
C596        C  0.56242360  0.72747246  0.74996788    -0.05510
C597        C  0.58569532  0.76467347  0.73331156    -0.32480
C598        C  0.62675740  0.77667443  0.74935290     0.36570
H599        H  0.63129285  0.70270272  0.83140679     0.16940
O600        O  0.56330327  0.66479982  0.79898173    -0.59980
H601        H  0.57201291  0.78506394  0.70827771     0.16960
O602        O  0.65370085  0.80364449  0.72517689    -0.60080
H603        H  0.67333908  0.78357989  0.71101643     0.43950
H604        H  0.54455024  0.67427445  0.82223634     0.43910
C605        C  0.39712659  0.77144272  0.78402630    -0.05150
C606        C  0.40489446  0.72544196  0.78769438    -0.32580
C607        C  0.44416705  0.70685473  0.77354661     0.36670
C608        C  0.47699906  0.73329983  0.75326001    -0.05510
C609        C  0.46611899  0.77681726  0.74351383    -0.32480
C610        C  0.42610869  0.79476100  0.75539870     0.36570
H611        H  0.38092200  0.70330187  0.80185308     0.16940
O612        O  0.44994938  0.66260861  0.77974298    -0.59980
H613        H  0.48759607  0.79625355  0.72282147     0.16960
O614        O  0.41218982  0.83119951  0.73277303    -0.60080
H615        H  0.43776370  0.84994668  0.72491322     0.43950
H616        H  0.46172127  0.65918613  0.80895016     0.43910
C617        C  0.70623433  0.79538920  0.10519271    -0.05150
C618        C  0.72561165  0.81720401  0.06865056    -0.32580
C619        C  0.73453366  0.79653260  0.03080736     0.36670
C620        C  0.72676156  0.75143594  0.02720977    -0.05510
C621        C  0.71618980  0.72732230  0.06549258    -0.32480
C622        C  0.70941002  0.74875403  0.10466192     0.36570
H623        H  0.72869131  0.85237725  0.06627218     0.16940
O624        O  0.75203939  0.82119898  0.99749591    -0.59980
H625        H  0.71549397  0.69172868  0.06554932     0.16960
O626        O  0.70817299  0.72356801  0.14178952    -0.60080
H627        H  0.72777271  0.73843562  0.16201740     0.43950
H628        H  0.72725254  0.83055990  0.97976671     0.43910
C629        C  0.70314472  0.85730382  0.16320665    -0.05150
C630        C  0.68946699  0.87191567  0.20331400    -0.32580
C631        C  0.70353993  0.91305509  0.21974848     0.36670
C632        C  0.73239750  0.94159419  0.19657598    -0.05510
C633        C  0.74939006  0.92534926  0.15933437    -0.32480
C634        C  0.73969978  0.88191101  0.14644003     0.36570
H635        H  0.66788386  0.85157810  0.22275210     0.16940
O636        O  0.68797509  0.92551620  0.25809779    -0.59980
H637        H  0.77539689  0.94401688  0.14371789     0.16960
O638        O  0.77171441  0.86062482  0.12598977    -0.60080
H639        H  0.78443337  0.88159943  0.10433636     0.43950
H640        H  0.70261621  0.90673566  0.27978356     0.43910
C641        C  0.66529706  0.12615222  0.01248013    -0.05150
C642        C  0.63107617  0.14693825  0.03213176    -0.32580
C643        C  0.63095413  0.15134143  0.07634619     0.36670
C644        C  0.66633556  0.13570321  0.10042959    -0.05510
C645        C  0.69880676  0.11316736  0.07861108    -0.32480
C646        C  0.70227676  0.11658188  0.03515221     0.36570
H647        H  0.60210133  0.15400135  0.01413808     0.16940
O648        O  0.59624656  0.16935362  0.09553689    -0.59980
H649        H  0.72622029  0.09938254  0.09509112     0.16960
O650        O  0.73571132  0.09614902  0.01594044    -0.60080
H651        H  0.75931120  0.11855416  0.01347683     0.43950
H652        H  0.59297601  0.19900242  0.08201753     0.43910
C653        C  0.51865384  0.10211433  0.11316633    -0.05150
C654        C  0.50201503  0.10122524  0.15378353    -0.32580
C655        C  0.45935983  0.11203054  0.15925987     0.36670
C656        C  0.43650946  0.13606224  0.12670909    -0.05510
C657        C  0.45743820  0.14226859  0.08734640    -0.32480
C658        C  0.49891649  0.12737512  0.08095062     0.36570
H659        H  0.51708250  0.08094239  0.17839971     0.16940
O660        O  0.43904401  0.09375017  0.19449670    -0.59980
H661        H  0.44110729  0.15478827  0.05990773     0.16960
O662        O  0.51504197  0.12786521  0.04037659    -0.60080
H663        H  0.52368485  0.15894984  0.03383066     0.43950
H664        H  0.43564001  0.06184757  0.18937771     0.43910
C665        C  0.48960803  0.91397405  0.13278585    -0.05150
C666        C  0.48830101  0.88991930  0.16983106    -0.32580
C667        C  0.45452934  0.85955267  0.17561809     0.36670
C668        C  0.41953114  0.85638334  0.14404256    -0.05510
C669        C  0.41555446  0.89408329  0.11785175    -0.32480
C670        C  0.44879891  0.92538274  0.11600598     0.36570
H671        H  0.51703626  0.88730505  0.18930647     0.16940
O672        O  0.45790172  0.83298020  0.21129813    -0.59980
H673        H  0.38673961  0.90114229  0.10047685     0.16960
O674        O  0.44372030  0.96151102  0.09013576    -0.60080
H675        H  0.43099295  0.98332851  0.10870929     0.43950
H676        H  0.46467679  0.85187549  0.23568612     0.43910
C677        C  0.54878859  0.87301297  0.84544339    -0.05150
C678        C  0.57695429  0.86871956  0.88000548    -0.32580
C679        C  0.61017291  0.83986347  0.87721766     0.36670
C680        C  0.60868237  0.80976809  0.84470446    -0.05510
C681        C  0.56757919  0.80240629  0.82575756    -0.32480
C682        C  0.53966847  0.83701979  0.82186873     0.36570
H683        H  0.57980117  0.89458507  0.90165148     0.16940
O684        O  0.64769751  0.84826860  0.89847072    -0.59980
H685        H  0.55864860  0.77407309  0.80963811     0.16960
O686        O  0.50847936  0.83837659  0.79122117    -0.60080
H687        H  0.52252845  0.85259541  0.76583579     0.43950
H688        H  0.64760429  0.82685144  0.92274121     0.43910
C689        C  0.36762042  0.11222619  0.88749176    -0.05150
C690        C  0.38088655  0.13754663  0.92286356    -0.32580
C691        C  0.37358201  0.12485432  0.96533389     0.36670
C692        C  0.35507900  0.08387305  0.97492214    -0.05510
C693        C  0.32861237  0.06660354  0.94330920    -0.32480
C694        C  0.34095455  0.07417700  0.90023767     0.36570
H695        H  0.39229147  0.17019290  0.92011679     0.16940
O696        O  0.39493938  0.14711218  0.99636124    -0.59980
H697        H  0.30990615  0.03687807  0.95129545     0.16960
O698        O  0.32973558  0.04190383  0.87267245    -0.60080
H699        H  0.29812346  0.03687795  0.87544713     0.43950
H700        H  0.42609196  0.14414202  0.99029491     0.43910
C701        C  0.39393915  0.81352294  0.85341661    -0.05150
C702        C  0.37125877  0.83999080  0.88156828    -0.32580
C703        C  0.37891281  0.83716626  0.92450420     0.36670
C704        C  0.41875202  0.82204493  0.93776651    -0.05510
C705        C  0.44226108  0.79533003  0.91210139    -0.32480
C706        C  0.43148773  0.79231586  0.86937502     0.36570
H707        H  0.34274866  0.85737048  0.87156142     0.16940
O708        O  0.35410147  0.86085906  0.95102551    -0.59980
H709        H  0.47326628  0.78360596  0.92296416     0.16960
O710        O  0.45928926  0.77116780  0.84386088    -0.60080
H711        H  0.46170088  0.74091274  0.85632254     0.43950
H712        H  0.35925900  0.89235284  0.94281910     0.43910
C713        C  0.65938712  0.87444035  0.01316736    -0.05150
C714        C  0.66747497  0.90571530  0.04434273    -0.32580
C715        C  0.66167034  0.89435760  0.08782669     0.36670
C716        C  0.65023038  0.85025136  0.10002092    -0.05510
C717        C  0.63063530  0.82438068  0.06881574    -0.32480
C718        C  0.63975850  0.83362360  0.02627768     0.36570
H719        H  0.67447148  0.93970352  0.03474328     0.16940
O720        O  0.66311883  0.92632904  0.11773745    -0.59980
H721        H  0.61742173  0.79195462  0.07690021     0.16960
O722        O  0.62584000  0.80425599  0.99677646    -0.60080
H723        H  0.59397452  0.80614597  0.99591896     0.43950
H724        H  0.68276318  0.95046850  0.10709980     0.43910
C725        C  0.71247908  0.02161343  0.78499102    -0.05150
C726        C  0.71958530  0.06353034  0.76405440    -0.32580
C727        C  0.71056858  0.10431067  0.78207405     0.36670
C728        C  0.68249311  0.10653524  0.81692081    -0.05510
C729        C  0.67336071  0.06505141  0.83806698    -0.32480
C730        C  0.68900436  0.02416443  0.82369451     0.36570
H731        H  0.73065413  0.06682055  0.73232501     0.16940
O732        O  0.72680308  0.14224591  0.76263009    -0.59980
H733        H  0.65373082  0.06380237  0.86621137     0.16960
O734        O  0.68112704  0.98701860  0.84854373    -0.60080
H735        H  0.65104798  0.97785829  0.84200602     0.43950
H736        H  0.75585025  0.14674362  0.77520978     0.43910
C737        C  0.61731870  0.14347534  0.85064775    -0.05150
C738        C  0.60216784  0.17104728  0.88278642    -0.32580
C739        C  0.55884670  0.18142112  0.88609479     0.36670
C740        C  0.52928114  0.15272078  0.86775375    -0.05510
C741        C  0.54154264  0.13274779  0.83040832    -0.32480
C742        C  0.58474678  0.12156097  0.82633351     0.36570
H743        H  0.62198297  0.18151074  0.90862014     0.16940
O744        O  0.54589160  0.20762740  0.91811013    -0.59980
H745        H  0.51753947  0.11457517  0.81249941     0.16960
O746        O  0.59451401  0.09004355  0.79808334    -0.60080
H747        H  0.58492075  0.06166642  0.81188053     0.43950
H748        H  0.54952318  0.19009593  0.94500893     0.43910
C749        C  0.47793216  0.20192926  0.76925587    -0.05150
C750        C  0.47337707  0.20589831  0.81289140    -0.32580
C751        C  0.43994718  0.18461644  0.83711321     0.36670
C752        C  0.40458858  0.16055943  0.81802272    -0.05510
C753        C  0.40751993  0.16170422  0.77230257    -0.32480
C754        C  0.44395543  0.17907034  0.74887485     0.36570
H755        H  0.49733032  0.22523488  0.82948118     0.16940
O756        O  0.44492938  0.18751431  0.87974596    -0.59980
H757        H  0.38141813  0.14828215  0.75354923     0.16960
O758        O  0.44470934  0.17519312  0.70564821    -0.60080
H759        H  0.46209403  0.14894152  0.70088953     0.43950
H760        H  0.44209285  0.21907996  0.88589927     0.43910
C761        C  0.64839622  0.18325651  0.79080937    -0.05150
C762        C  0.63063697  0.22440141  0.79964101    -0.32580
C763        C  0.58626929  0.23290108  0.79286884     0.36670
C764        C  0.56229207  0.20926814  0.76254881    -0.05510
C765        C  0.58529344  0.17773187  0.74084347    -0.32480
C766        C  0.62739428  0.16477150  0.75412133     0.36570
H767        H  0.65082574  0.25036208  0.81164623     0.16940
O768        O  0.56781846  0.26686482  0.81318410    -0.59980
H769        H  0.57031395  0.16232479  0.71383029     0.16960
O770        O  0.64776441  0.13482865  0.73012023    -0.60080
H771        H  0.62772348  0.10916162  0.72745124     0.43950
H772        H  0.57371468  0.26190297  0.84390973     0.43910
C773        C  0.47778798  0.73814797  0.20800666    -0.05150
C774        C  0.43929247  0.74820593  0.23040950    -0.32580
C775        C  0.40173139  0.76493373  0.20998331     0.36670
C776        C  0.40516240  0.78149128  0.16782493    -0.05510
C777        C  0.44080483  0.76617713  0.14450678    -0.32480
C778        C  0.47415771  0.74234023  0.16334756     0.36570
H779        H  0.43911954  0.75180972  0.26359328     0.16940
O780        O  0.36570040  0.77214976  0.23349835    -0.59980
H781        H  0.44440762  0.77562151  0.11117598     0.16960
O782        O  0.50509443  0.72697117  0.13727958    -0.60080
H783        H  0.49487425  0.69689445  0.13039836     0.43950
H784        H  0.35028748  0.74322465  0.23589089     0.43910
C785        C  0.56079389  0.75316219  0.20375643    -0.05150
C786        C  0.56800059  0.79897334  0.20485940    -0.32580
C787        C  0.60293487  0.82121416  0.18274564     0.36670
C788        C  0.63518002  0.79789182  0.16044206    -0.05510
C789        C  0.62292340  0.75281920  0.15484757    -0.32480
C790        C  0.58791310  0.73065421  0.17638817     0.36570
H791        H  0.54567376  0.81807489  0.22246371     0.16940
O792        O  0.60261230  0.86638869  0.17934878    -0.59980
H793        H  0.63666310  0.73436661  0.13035391     0.16960
O794        O  0.58115680  0.68630391  0.17147310    -0.60080
H795        H  0.57639718  0.68241728  0.14064900     0.43950
H796        H  0.59804890  0.87704462  0.20838787     0.43910
C797        C  0.24842888  0.93766579  0.69525872    -0.05150
C798        C  0.20359385  0.93698572  0.69058245    -0.32580
C799        C  0.18067268  0.90101924  0.67410324     0.36670
C800        C  0.20175313  0.86170770  0.66258139    -0.05510
C801        C  0.24679712  0.86150443  0.67026637    -0.32480
C802        C  0.27025512  0.90011968  0.68184434     0.36570
H803        H  0.18550209  0.96498444  0.69994712     0.16940
O804        O  0.13697237  0.90500267  0.66836221    -0.59980
H805        H  0.26456513  0.83207056  0.66494376     0.16960
O806        O  0.31442629  0.89996981  0.68146800    -0.60080
H807        H  0.32284965  0.91487987  0.65413177     0.43950
H808        H  0.12500119  0.91587358  0.69513203     0.43910
C809        C  0.25247534  0.02192676  0.69781095    -0.05150
C810        C  0.22483287  0.04730896  0.72141435    -0.32580
C811        C  0.21036889  0.08879714  0.70694810     0.36670
C812        C  0.20885128  0.10021222  0.66245492    -0.05510
C813        C  0.23151099  0.06975009  0.63714479    -0.32480
C814        C  0.25519722  0.03396459  0.65431507     0.36570
H815        H  0.21158056  0.03387479  0.75076918     0.16940
O816        O  0.19249618  0.11360942  0.73700163    -0.59980
H817        H  0.22924139  0.07232733  0.60284817     0.16960
O818        O  0.27757627  0.00847190  0.62737163    -0.60080
H819        H  0.25551329  0.98917627  0.61402436     0.43950
H820        H  0.21590618  0.13417736  0.74540061     0.43910
C821        C  0.31712266  0.01818521  0.76977701    -0.05150
C822        C  0.28942119  0.04823101  0.78826692    -0.32580
C823        C  0.30338035  0.09136180  0.79799364     0.36670
C824        C  0.34647080  0.09919001  0.81006724    -0.05510
C825        C  0.37567840  0.06827914  0.79406122    -0.32480
C826        C  0.36127586  0.03223061  0.76900267     0.36570
H827        H  0.25702932  0.03850846  0.79638553     0.16940
O828        O  0.27501338  0.12492887  0.79440350    -0.59980
H829        H  0.40997598  0.07372704  0.79860860     0.16960
O830        O  0.38950417  0.01357228  0.74168513    -0.60080
H831        H  0.41757789  0.01128532  0.75669380     0.43950
H832        H  0.28708693  0.14542158  0.77201954     0.43910
C833        C  0.31428877  0.92909728  0.76850676    -0.05150
C834        C  0.35728800  0.92338443  0.78115178    -0.32580
C835        C  0.37456961  0.88195352  0.79224562     0.36670
C836        C  0.34892634  0.84193914  0.79331414    -0.05510
C837        C  0.30672250  0.84726410  0.77754701    -0.32480
C838        C  0.28816532  0.88965634  0.77188629     0.36570
H839        H  0.37891490  0.95093369  0.78372308     0.16940
O840        O  0.41754873  0.88093526  0.80246372    -0.59980
H841        H  0.28680180  0.81839518  0.77192656     0.16960
O842        O  0.24410615  0.89165519  0.77085430    -0.60080
H843        H  0.23569983  0.89937871  0.79996181     0.43950
H844        H  0.43339737  0.89774263  0.77960026     0.43910
C845        C  0.12856266  0.66436927  0.16474531    -0.05150
C846        C  0.09323921  0.63638479  0.17841590    -0.32580
C847        C  0.05670722  0.65266396  0.19933798     0.36670
C848        C  0.05074082  0.69834082  0.20138973    -0.05510
C849        C  0.08467447  0.72571347  0.18547128    -0.32480
C850        C  0.12478697  0.70941322  0.17342253     0.36570
H851        H  0.09431886  0.60144447  0.17317103     0.16940
O852        O  0.02623694  0.62358027  0.21596060    -0.59980
H853        H  0.08061478  0.76040519  0.18232451     0.16960
O854        O  0.16025769  0.73756753  0.17113193    -0.60080
H855        H  0.15110145  0.76547921  0.15707239     0.43950
H856        H  0.03367425  0.62002732  0.24651649     0.43910
C857        C  0.84177735  0.66119241  0.10199811    -0.05150
C858        C  0.83109542  0.63205642  0.06911513    -0.32580
C859        C  0.80573691  0.64517719  0.03374902     0.36670
C860        C  0.79900701  0.68976225  0.02378747    -0.05510
C861        C  0.81242176  0.71967975  0.05477842    -0.32480
C862        C  0.82711703  0.70495863  0.09525724     0.36570
H863        H  0.83844402  0.59761444  0.07320292     0.16940
O864        O  0.78399424  0.61386197  0.01155953    -0.59980
H865        H  0.80760781  0.75444929  0.04947958     0.16960
O866        O  0.82363188  0.73314232  0.12804531    -0.60080
H867        H  0.80102674  0.71976768  0.14693694     0.43950
H868        H  0.75625537  0.60878951  0.02673854     0.43910
C869        C  0.96601216  0.70671594  0.20629659    -0.05150
C870        C  0.93565220  0.68324223  0.23213257    -0.32580
C871        C  0.89337266  0.67360326  0.21663262     0.36670
C872        C  0.88376190  0.68188332  0.17316471    -0.05510
C873        C  0.90758691  0.71887153  0.15564519    -0.32480
C874        C  0.94999603  0.72832068  0.16962261     0.36570
H875        H  0.94447338  0.67329001  0.26429089     0.16940
O876        O  0.86098855  0.65827514  0.24363047    -0.59980
H877        H  0.89944504  0.73342630  0.12506505     0.16960
O878        O  0.97617244  0.75769918  0.14672425    -0.60080
H879        H  0.97277413  0.75109441  0.11627246     0.43950
H880        H  0.87446118  0.64476412  0.26937246     0.43910
C881        C  0.85433906  0.36165468  0.79998205    -0.05150
C882        C  0.87981984  0.40054337  0.79129103    -0.32580
C883        C  0.86399791  0.43725000  0.76799730     0.36670
C884        C  0.81974360  0.43952116  0.75798930    -0.05510
C885        C  0.79437156  0.40128127  0.76819495    -0.32480
C886        C  0.81270970  0.36127204  0.78184751     0.36570
H887        H  0.91163849  0.40451022  0.80421478     0.16940
O888        O  0.89165479  0.47183319  0.75722975    -0.59980
H889        H  0.75991249  0.40170100  0.76619631     0.16960
O890        O  0.78981786  0.32220106  0.77778898    -0.60080
H891        H  0.75930816  0.32744883  0.78499313     0.43950
H892        H  0.90249360  0.48347070  0.78442195     0.43910
C893        C  0.15276555  0.67217133  0.79761280    -0.05150
C894        C  0.12690573  0.64973121  0.76690040    -0.32580
C895        C  0.08491603  0.66292336  0.75600272     0.36670
C896        C  0.06811409  0.70106897  0.77296675    -0.05510
C897        C  0.09799544  0.72895064  0.79379521    -0.32480
C898        C  0.14121721  0.71627877  0.80225037     0.36570
H899        H  0.13502333  0.61727275  0.75726272     0.16940
O900        O  0.06097369  0.63875373  0.72793379    -0.59980
H901        H  0.08816611  0.76118707  0.80246296     0.16960
O902        O  0.17322340  0.74738356  0.80938720    -0.60080
H903        H  0.15956486  0.77431676  0.81924454     0.43950
H904        H  0.05937404  0.60824912  0.74011971     0.43910
C905        C  0.17113737  0.35396496  0.08385606    -0.05150
C906        C  0.18483033  0.34027453  0.04433381    -0.32580
C907        C  0.20011253  0.36999099  0.01355433     0.36670
C908        C  0.18498583  0.41182640  0.01321544    -0.05510
C909        C  0.16378194  0.42616032  0.05003942    -0.32480
C910        C  0.15570259  0.39725852  0.08474472     0.36570
H911        H  0.18661686  0.30686069  0.03865666     0.16940
O912        O  0.22494327  0.35708129  0.98071707    -0.59980
H913        H  0.15191348  0.45916890  0.05141892     0.16960
O914        O  0.13863293  0.41333285  0.12098513    -0.60080
H915        H  0.11092209  0.39698439  0.12519627     0.43950
H916        H  0.25499957  0.36478944  0.98893054     0.43910
C917        C  0.13541138  0.63421164  0.00755801    -0.05150
C918        C  0.17063344  0.61201548  0.02594616    -0.32580
C919        C  0.17080271  0.60030988  0.06915593     0.36670
C920        C  0.14454570  0.62240882  0.09774225    -0.05510
C921        C  0.10825191  0.64227550  0.07903770    -0.32480
C922        C  0.10483885  0.65071705  0.03540846     0.36570
H923        H  0.19288406  0.59549715  0.00575644     0.16940
O924        O  0.19002403  0.56179061  0.08116408    -0.59980
H925        H  0.08587008  0.65894536  0.09819809     0.16960
O926        O  0.07227076  0.67706184  0.02111568    -0.60080
H927        H  0.08658606  0.70515831  0.01147248     0.43950
H928        H  0.16633719  0.53926720  0.08285891     0.43910
C929        C  0.99729534  0.60174305  0.12811101    -0.05150
C930        C  0.96541709  0.56828930  0.13358595    -0.32580
C931        C  0.92147951  0.57848833  0.12968795     0.36670
C932        C  0.90962635  0.62332101  0.12545443    -0.05510
C933        C  0.94214992  0.65226064  0.11114977    -0.32480
C934        C  0.98425027  0.64553207  0.12426531     0.36570
H935        H  0.97445420  0.53415407  0.13248400     0.16940
O936        O  0.89132026  0.54521790  0.12380426    -0.59980
H937        H  0.93467556  0.68235562  0.09394361     0.16960
O938        O  0.01440365  0.67891502  0.11723426    -0.60080
H939        H  0.01317637  0.68744565  0.08654823     0.43950
H940        H  0.89883818  0.52032295  0.14341269     0.43910
C941        C  0.89184058  0.34123939  0.87071062    -0.05150
C942        C  0.92083665  0.31377924  0.89351119    -0.32580
C943        C  0.92042466  0.30989297  0.93778878     0.36670
C944        C  0.89370280  0.33671249  0.96107421    -0.05510
C945        C  0.86260882  0.36109246  0.93842494    -0.32480
C946        C  0.86689638  0.36950302  0.89486859     0.36570
H947        H  0.94050772  0.29087797  0.87733870     0.16940
O948        O  0.94516096  0.27877492  0.95812095    -0.59980
H949        H  0.84117356  0.38173579  0.95549548     0.16960
O950        O  0.84385967  0.40280827  0.87566133    -0.60080
H951        H  0.81438837  0.40153996  0.88783674     0.43950
H952        H  0.97525708  0.28489477  0.94860883     0.43910
C953        C  0.12930840  0.61902462  0.85084159    -0.05150
C954        C  0.11617752  0.57732237  0.83405277    -0.32580
C955        C  0.07292081  0.56427917  0.82900053     0.36670
C956        C  0.04038787  0.59258683  0.83938817    -0.05510
C957        C  0.05231115  0.63430452  0.85321591    -0.32480
C958        C  0.09463460  0.64537633  0.86350681     0.36570
H959        H  0.13811160  0.55538229  0.81999142     0.16940
O960        O  0.06306847  0.52439752  0.81217951    -0.59980
H961        H  0.02759270  0.65687119  0.86199802     0.16960
O962        O  0.10096870  0.68172433  0.88722702    -0.60080
H963        H  0.08322354  0.70568146  0.87493105     0.43950
H964        H  0.06064176  0.53033825  0.78110545     0.43910
C965        C  0.07592923  0.43225633  0.82911420    -0.05150
C966        C  0.11341228  0.43817990  0.85410783    -0.32580
C967        C  0.14351345  0.40407620  0.85669996     0.36670
C968        C  0.13663656  0.36648267  0.83187423    -0.05510
C969        C  0.10681241  0.37247519  0.79732117    -0.32480
C970        C  0.08127351  0.40895801  0.79311828     0.36570
H971        H  0.11464054  0.46353619  0.87739814     0.16940
O972        O  0.17831772  0.40721208  0.88340001    -0.59980
H973        H  0.10362776  0.35031525  0.77192341     0.16960
O974        O  0.05558602  0.41525489  0.75779438    -0.60080
H975        H  0.02533783  0.41627277  0.76774869     0.43950
H976        H  0.19277898  0.43597414  0.87628433     0.43910
C977        C  0.98499758  0.42308187  0.12000480    -0.05150
C978        C  0.95071767  0.42813770  0.09095948    -0.32580
C979        C  0.91127083  0.40516012  0.09777607     0.36670
C980        C  0.90693971  0.37557066  0.13313474    -0.05510
C981        C  0.93848888  0.38195527  0.16601376    -0.32480
C982        C  0.97667364  0.40518984  0.15974026     0.36570
H983        H  0.95593577  0.44681589  0.06148204     0.16940
O984        O  0.87790825  0.41345941  0.07074313    -0.59980
H985        H  0.93794087  0.36362396  0.19526750     0.16960
O986        O  0.00803040  0.40425633  0.19060453    -0.60080
H987        H  0.02889176  0.38240474  0.18145829     0.43950
H988        H  0.86431812  0.43998412  0.08159430     0.43910
C989        C  0.82746035  0.67699482  0.85701863    -0.05150
C990        C  0.84599234  0.70824539  0.88549984    -0.32580
C991        C  0.83039982  0.71321908  0.92681332     0.36670
C992        C  0.79166350  0.69273227  0.94013387    -0.05510
C993        C  0.76709989  0.67108071  0.90850953    -0.32480
C994        C  0.78364148  0.66545930  0.86673635     0.36570
H995        H  0.87820286  0.72138428  0.88177984     0.16940
O996        O  0.85346356  0.73922955  0.95399163    -0.59980
H997        H  0.73512705  0.65821355  0.91627825     0.16960
O998        O  0.75955447  0.64140633  0.83886031    -0.60080
H999        H  0.74816772  0.66334287  0.81798063     0.43950
H1000       H  0.87357356  0.71915608  0.96899945     0.43910
C1001       C  0.90207497  0.66079761  0.81862369    -0.05150
C1002       C  0.91055160  0.70675914  0.81254648    -0.32580
C1003       C  0.95171366  0.72448471  0.80109884     0.36670
C1004       C  0.98329390  0.69770512  0.78374338    -0.05510
C1005       C  0.97301479  0.65240056  0.78362375    -0.32480
C1006       C  0.93415807  0.63403893  0.80117910     0.36570
H1007       H  0.88540089  0.73012300  0.81608142     0.16940
O1008       O  0.95902943  0.76898785  0.80323900    -0.59980
H1009       H  0.99468888  0.63042365  0.76908526     0.16960
O1010       O  0.92721860  0.58959971  0.79855722    -0.60080
H1011       H  0.92197420  0.58439491  0.76801489     0.43950
H1012       H  0.97668587  0.77278663  0.82921975     0.43910
C1013       C  0.84119986  0.60160632  0.81163621    -0.05150
C1014       C  0.84526287  0.55676683  0.82566973    -0.32580
C1015       C  0.82443366  0.52206066  0.80632752     0.36670
C1016       C  0.81328361  0.52538841  0.76313755    -0.05510
C1017       C  0.81800500  0.56857579  0.74387660    -0.32480
C1018       C  0.82809729  0.60653891  0.76848405     0.36570
H1019       H  0.86374097  0.54705359  0.85339198     0.16940
O1020       O  0.81755139  0.48402870  0.83027131    -0.59980
H1021       H  0.81332221  0.57344714  0.71002283     0.16960
O1022       O  0.82802972  0.64756241  0.74917372    -0.60080
H1023       H  0.85579709  0.65040533  0.73369209     0.43950
H1024       H  0.78746453  0.48544598  0.84055415     0.43910
C1025       C  0.86598804  0.61868266  0.88607422    -0.05150
C1026       C  0.83011869  0.59371185  0.90385402    -0.32580
C1027       C  0.82911618  0.57710720  0.94496161     0.36670
C1028       C  0.86324588  0.58717836  0.97177148    -0.05510
C1029       C  0.89462123  0.61934795  0.95766029    -0.32480
C1030       C  0.89776909  0.63294798  0.91488699     0.36570
H1031       H  0.80218876  0.58533629  0.88490070     0.16940
O1032       O  0.79738893  0.54686689  0.95726352    -0.59980
H1033       H  0.92016119  0.63038900  0.97859390     0.16960
O1034       O  0.93123234  0.66069990  0.90194674    -0.60080
H1035       H  0.93215057  0.68545012  0.92164328     0.43950
H1036       H  0.76943533  0.56096583  0.95126324     0.43910
C1037       C  0.23650016  0.52995605  0.77517476    -0.05150
C1038       C  0.23061992  0.53067675  0.81964921    -0.32580
C1039       C  0.21282266  0.56682620  0.83981877     0.36670
C1040       C  0.20276795  0.60623095  0.81632280    -0.05510
C1041       C  0.21410956  0.60710019  0.77272955    -0.32480
C1042       C  0.22468183  0.56854678  0.75188621     0.36570
H1043       H  0.23713165  0.50205610  0.83938135     0.16940
O1044       O  0.20271473  0.56241053  0.88230266    -0.59980
H1045       H  0.20954985  0.63637700  0.75295394     0.16960
O1046       O  0.21974339  0.56854976  0.70863833    -0.60080
H1047       H  0.19108519  0.55439004  0.70380735     0.43950
H1048       H  0.18126840  0.53772256  0.88506200     0.43910
C1049       C  0.23467993  0.44470846  0.77266128    -0.05150
C1050       C  0.20415981  0.42181713  0.74896904    -0.32580
C1051       C  0.19266036  0.37791929  0.75887056     0.36670
C1052       C  0.20419523  0.35772028  0.79925790    -0.05510
C1053       C  0.23827051  0.38080580  0.82061585    -0.32480
C1054       C  0.25401030  0.42265637  0.80712923     0.36570
H1055       H  0.19082991  0.43745160  0.72057393     0.16940
O1056       O  0.16647459  0.35787750  0.73003848    -0.59980
H1057       H  0.25036120  0.36995637  0.85113468     0.16960
O1058       O  0.28796334  0.44204346  0.82825641    -0.60080
H1059       H  0.27944743  0.44261976  0.85857712     0.43950
H1060       H  0.18552815  0.35106644  0.70600884     0.43910
C1061       C  0.80614462  0.52003530  0.19365630    -0.05150
C1062       C  0.84250712  0.53741902  0.21374103    -0.32580
C1063       C  0.86163220  0.57763753  0.20013798     0.36670
C1064       C  0.84185293  0.60467103  0.16743184    -0.05510
C1065       C  0.80138561  0.58889206  0.15220273    -0.32480
C1066       C  0.78560358  0.54588854  0.16229010     0.36570
H1067       H  0.85754729  0.51866349  0.23934666     0.16940
O1068       O  0.90189841  0.58773342  0.21615812    -0.59980
H1069       H  0.78245771  0.60848334  0.13028764     0.16960
O1070       O  0.75007576  0.52907863  0.14151955    -0.60080
H1071       H  0.72801992  0.55210576  0.14098979     0.43950
H1072       H  0.91961396  0.56115647  0.21449168     0.43910
C1073       C  0.80203978  0.43552002  0.19807062    -0.05150
C1074       C  0.84090033  0.42122256  0.21484450    -0.32580
C1075       C  0.85473127  0.37876603  0.20828090     0.36670
C1076       C  0.83995328  0.35511675  0.17221099    -0.05510
C1077       C  0.79768611  0.36684629  0.15914556    -0.32480
C1078       C  0.77883481  0.40653590  0.17182010     0.36570
H1079       H  0.85841551  0.44117316  0.23721891     0.16940
O1080       O  0.88116766  0.36100829  0.23878567    -0.59980
H1081       H  0.77942269  0.34629716  0.13797836     0.16960
O1082       O  0.73862566  0.41717476  0.15729983    -0.60080
H1083       H  0.74360108  0.43274338  0.12948302     0.43950
H1084       H  0.86166640  0.34973616  0.26182255     0.43910
C1085       C  0.13847765  0.16130193  0.65747644    -0.05150
C1086       C  0.14103239  0.17487877  0.69954551    -0.32580
C1087       C  0.10320085  0.17975237  0.72387881     0.36670
C1088       C  0.06341543  0.18907908  0.70332046    -0.05510
C1089       C  0.06227135  0.18539890  0.65968231    -0.32480
C1090       C  0.09680350  0.16921982  0.63727062     0.36570
H1091       H  0.17185487  0.18010471  0.71419559     0.16940
O1092       O  0.10612955  0.17619009  0.76729525    -0.59980
H1093       H  0.03268050  0.19215416  0.64253923     0.16960
O1094       O  0.08629935  0.15591799  0.59724475    -0.60080
H1095       H  0.07286218  0.18108708  0.58173629     0.43950
H1096       H  0.09415393  0.14647237  0.77502083     0.43910
C1097       C  0.98082768  0.18461445  0.70911139    -0.05150
C1098       C  0.94826186  0.20791809  0.68704633    -0.32580
C1099       C  0.90839704  0.18703048  0.67640656     0.36670
C1100       C  0.90283291  0.14069351  0.68141997    -0.05510
C1101       C  0.93307337  0.12016990  0.70963948    -0.32480
C1102       C  0.97164113  0.14087692  0.72183120     0.36570
H1103       H  0.95292382  0.24281624  0.68007969     0.16940
O1104       O  0.87529504  0.21246346  0.66186305    -0.59980
H1105       H  0.92925336  0.08576545  0.71906321     0.16960
O1106       O  0.00074978  0.11749468  0.74578568    -0.60080
H1107       H  0.99447031  0.12434891  0.77566622     0.43950
H1108       H  0.85409711  0.21199187  0.68537954     0.43910
C1109       C  0.90789222  0.30115224  0.80357227    -0.05150
C1110       C  0.94823156  0.32329979  0.79887616    -0.32580
C1111       C  0.98359465  0.30444839  0.78007400     0.36670
C1112       C  0.98248789  0.26005218  0.76893399    -0.05510
C1113       C  0.94223849  0.23725696  0.77506114    -0.32480
C1114       C  0.90454132  0.25917915  0.78614929     0.36570
H1115       H  0.95445552  0.35459036  0.81276906     0.16940
O1116       O  0.02019374  0.32978504  0.77504829    -0.59980
H1117       H  0.93887119  0.20232523  0.77155145     0.16960
O1118       O  0.86524765  0.23803087  0.78202615    -0.60080
H1119       H  0.85188300  0.25202169  0.75648559     0.43950
H1120       H  0.03089389  0.33346189  0.80444095     0.43910
C1121       C  0.14306369  0.28946466  0.81049134    -0.05150
C1122       C  0.14294648  0.27971560  0.76711221    -0.32580
C1123       C  0.10333773  0.27015318  0.74619170     0.36670
C1124       C  0.06647642  0.25555496  0.77008913    -0.05510
C1125       C  0.07071010  0.25343176  0.81406382    -0.32480
C1126       C  0.10714839  0.27075594  0.83421339     0.36570
H1127       H  0.17190875  0.28501948  0.74861600     0.16940
O1128       O  0.10128044  0.27520176  0.70279883    -0.59980
H1129       H  0.04413079  0.24050989  0.83343094     0.16960
O1130       O  0.10488457  0.27128835  0.87733530    -0.60080
H1131       H  0.11358179  0.24156228  0.88745391     0.43950
H1132       H  0.08814351  0.30421760  0.69734433     0.43910
C1133       C  0.71338125  0.19258008  0.11882172    -0.05150
C1134       C  0.69213262  0.22466157  0.09167388    -0.32580
C1135       C  0.70467624  0.23554935  0.04948117     0.36670
C1136       C  0.74084964  0.21691259  0.03172305    -0.05510
C1137       C  0.76686693  0.19239398  0.05982657    -0.32480
C1138       C  0.75555475  0.18315747  0.10299474     0.36570
H1139       H  0.65999426  0.23485121  0.09795257     0.16940
O1140       O  0.67940704  0.26290952  0.02523191    -0.59980
H1141       H  0.79624690  0.17899605  0.04812815     0.16960
O1142       O  0.78631349  0.16432259  0.12829760    -0.60080
H1143       H  0.79346840  0.13621046  0.11525056     0.43950
H1144       H  0.65449156  0.24427146  0.01633392     0.43910
C1145       C  0.73303039  0.20881371  0.94696371    -0.05150
C1146       C  0.74670880  0.16978085  0.92864371    -0.32580
C1147       C  0.72838031  0.15313948  0.89021790     0.36670
C1148       C  0.69445778  0.17519849  0.86718410    -0.05510
C1149       C  0.68549154  0.21697148  0.88438777    -0.32480
C1150       C  0.70244028  0.23255706  0.92325944     0.36570
H1151       H  0.77242411  0.15187474  0.94405799     0.16940
O1152       O  0.74450643  0.11476113  0.87638059    -0.59980
H1153       H  0.65891472  0.23554280  0.87328746     0.16960
O1154       O  0.68623211  0.26996485  0.93983133    -0.60080
H1155       H  0.67896655  0.29037220  0.91578920     0.43950
H1156       H  0.76974952  0.12383703  0.85860686     0.43910
C1157       C  0.84983719  0.31673622  0.09660752    -0.05150
C1158       C  0.82191452  0.34190412  0.06958537    -0.32580
C1159       C  0.80111943  0.32489087  0.03273733     0.36670
C1160       C  0.81044057  0.28272208  0.01829926    -0.05510
C1161       C  0.83938654  0.25847264  0.04306591    -0.32480
C1162       C  0.85352909  0.27192351  0.08353013     0.36570
H1163       H  0.81303632  0.37440420  0.07821276     0.16940
O1164       O  0.76983365  0.34891849  0.01254919    -0.59980
H1165       H  0.84792647  0.22628534  0.03289282     0.16960
O1166       O  0.86595966  0.23896663  0.11158578    -0.60080
H1167       H  0.88916750  0.22304625  0.09748734     0.43950
H1168       H  0.78379257  0.37745208  0.00377279     0.43910
C1169       C  0.80252791  0.27089991  0.93612045    -0.05150
C1170       C  0.83182280  0.24326233  0.91766129    -0.32580
C1171       C  0.84866094  0.25245178  0.87657785     0.36670
C1172       C  0.83609115  0.29094745  0.85204143    -0.05510
C1173       C  0.79887167  0.31137296  0.86825706    -0.32480
C1174       C  0.78386003  0.30342600  0.91011740     0.36570
H1175       H  0.84364615  0.21540278  0.93621447     0.16940
O1176       O  0.88046284  0.22577114  0.86300603    -0.59980
H1177       H  0.78663617  0.34068127  0.85326483     0.16960
O1178       O  0.75506237  0.33141230  0.92737616    -0.60080
H1179       H  0.73463659  0.34040267  0.90459338     0.43950
H1180       H  0.90239427  0.22370864  0.88593555     0.43910
C1181       C  0.23461078  0.72285623  0.03663507    -0.05150
C1182       C  0.18976915  0.72506460  0.04036678    -0.32580
C1183       C  0.16919635  0.71376406  0.07921392     0.36670
C1184       C  0.19059520  0.68588280  0.11004966    -0.05510
C1185       C  0.23562032  0.69169498  0.10947737    -0.32480
C1186       C  0.25554491  0.71838417  0.07704664     0.36570
H1187       H  0.17035867  0.73728736  0.01449929     0.16940
O1188       O  0.12796164  0.72760623  0.08511042    -0.59980
H1189       H  0.25381182  0.68319170  0.13784067     0.16960
O1190       O  0.27507950  0.75509844  0.09283387    -0.60080
H1191       H  0.25193764  0.77632877  0.09762500     0.43950
H1192       H  0.12978295  0.76021031  0.08364337     0.43910
C1193       C  0.23391282  0.70583678  0.95389644    -0.05150
C1194       C  0.25292676  0.67041665  0.93393118    -0.32580
C1195       C  0.23786714  0.65374528  0.89432222     0.36670
C1196       C  0.19822493  0.66792183  0.87457546    -0.05510
C1197       C  0.18285986  0.70657518  0.89357420    -0.32480
C1198       C  0.19951437  0.72502525  0.93136950     0.36570
H1199       H  0.28233363  0.65759757  0.94754970     0.16940
O1200       O  0.26602444  0.62860478  0.87278300    -0.59980
H1201       H  0.15830312  0.72569984  0.87908444     0.16960
O1202       O  0.18452538  0.76480387  0.94341979    -0.60080
H1203       H  0.15276432  0.76100633  0.94596518     0.43950
H1204       H  0.27550271  0.60500928  0.89301720     0.43910
C1205       C  0.32299225  0.77158313  0.02039886    -0.05150
C1206       C  0.34779594  0.74485587  0.04764949    -0.32580
C1207       C  0.36192264  0.75863280  0.08838327     0.36670
C1208       C  0.36152863  0.80435347  0.10100033    -0.05510
C1209       C  0.34032731  0.83187750  0.06987974    -0.32480
C1210       C  0.31909071  0.81571441  0.03250736     0.36570
H1211       H  0.34955533  0.71028879  0.04082074     0.16940
O1212       O  0.36932832  0.72470691  0.11711142    -0.59980
H1213       H  0.33543561  0.86588033  0.07573829     0.16960
O1214       O  0.29045858  0.84184645  0.01050507    -0.60080
H1215       H  0.30199605  0.87253721  0.01069242     0.43950
H1216       H  0.34231664  0.72061639  0.13371260     0.43910
C1217       C  0.31021528  0.75671631  0.93782140    -0.05150
C1218       C  0.28603445  0.78218963  0.90901570    -0.32580
C1219       C  0.29481110  0.78516110  0.86480615     0.36670
C1220       C  0.33308622  0.76720633  0.84670449    -0.05510
C1221       C  0.35163259  0.73465481  0.87540224    -0.32480
C1222       C  0.34180981  0.73079919  0.91968798     0.36570
H1223       H  0.25905173  0.79991135  0.92088822     0.16940
O1224       O  0.26553425  0.80764504  0.84098536    -0.59980
H1225       H  0.38028504  0.71799099  0.86682013     0.16960
O1226       O  0.36439782  0.70201630  0.94512546    -0.60080
H1227       H  0.38907513  0.71959699  0.95616826     0.43950
H1228       H  0.24468084  0.78486942  0.83138600     0.43910
C1229       C  0.21205529  0.36688153  0.15068623    -0.05150
C1230       C  0.20726427  0.37286462  0.19487853    -0.32580
C1231       C  0.21669284  0.41393412  0.21351396     0.36670
C1232       C  0.23829597  0.44821509  0.18984750    -0.05510
C1233       C  0.24790407  0.44091333  0.14759498    -0.32480
C1234       C  0.23727938  0.40108036  0.12865181     0.36570
H1235       H  0.19533189  0.34598130  0.21530710     0.16940
O1236       O  0.20849252  0.41862324  0.25584292    -0.59980
H1237       H  0.26600685  0.46550482  0.12913147     0.16960
O1238       O  0.24958754  0.39737702  0.08706627    -0.60080
H1239       H  0.28110982  0.40370866  0.08581489     0.43950
H1240       H  0.18049825  0.43353967  0.25668824     0.43910
C1241       C  0.23698331  0.53260910  0.19335184    -0.05150
C1242       C  0.20275451  0.55085935  0.21517464    -0.32580
C1243       C  0.18453110  0.59129636  0.20173176     0.36670
C1244       C  0.19596326  0.61265274  0.16181826    -0.05510
C1245       C  0.23406496  0.59643172  0.14350316    -0.32480
C1246       C  0.25402234  0.55748641  0.15847568     0.36570
H1247       H  0.19094122  0.53440045  0.24405649     0.16940
O1248       O  0.15749854  0.61005631  0.22972075    -0.59980
H1249       H  0.24677512  0.61099474  0.11428710     0.16960
O1250       O  0.29010026  0.54371845  0.13820183    -0.60080
H1251       H  0.28140356  0.53927848  0.10827196     0.43950
H1252       H  0.17578527  0.63170692  0.24485717     0.43910
C1253       C  0.23568257  0.19364208  0.51679536    -0.05150
C1254       C  0.26012842  0.17242899  0.54880730    -0.32580
C1255       C  0.24182370  0.15660041  0.58824560     0.36670
C1256       C  0.19573205  0.15383188  0.59563786    -0.05510
C1257       C  0.17362136  0.18123379  0.56545272    -0.32480
C1258       C  0.19229248  0.20029453  0.52728172     0.36570
H1259       H  0.29472983  0.17128455  0.54475098     0.16940
O1260       O  0.27057853  0.14857815  0.62054868    -0.59980
H1261       H  0.14297508  0.19328017  0.57244916     0.16960
O1262       O  0.16937021  0.22978736  0.50264083    -0.60080
H1263       H  0.13842852  0.22118369  0.50506080     0.43950
H1264       H  0.27110897  0.17553897  0.63736923     0.43910
C1265       C  0.24320073  0.20049013  0.43168847    -0.05150
C1266       C  0.21312790  0.22442787  0.40740368    -0.32580
C1267       C  0.20306490  0.21487203  0.36436255     0.36670
C1268       C  0.22257105  0.17903681  0.34308288    -0.05510
C1269       C  0.26092467  0.16584114  0.36409457    -0.32480
C1270       C  0.26829857  0.17143183  0.40856288     0.36570
H1271       H  0.19696335  0.25115365  0.42195088     0.16940
O1272       O  0.17366183  0.24101324  0.34386997    -0.59980
H1273       H  0.28529496  0.15033684  0.34620836     0.16960
O1274       O  0.29924604  0.14754224  0.42981980    -0.60080
H1275       H  0.32219570  0.14119705  0.40922650     0.43950
H1276       H  0.14692510  0.23949491  0.36097825     0.43910
C1277       C  0.56600891  0.21529254  0.20112086    -0.05150
C1278       C  0.57310544  0.17025764  0.20615128    -0.32580
C1279       C  0.61231699  0.15191172  0.19422441     0.36670
C1280       C  0.64408840  0.17683874  0.16986283    -0.05510
C1281       C  0.63905513  0.22310661  0.17180666    -0.32480
C1282       C  0.59983474  0.24191958  0.18378918     0.36570
H1283       H  0.55013958  0.14989199  0.22435214     0.16940
O1284       O  0.62238425  0.11384700  0.21582037    -0.59980
H1285       H  0.66556979  0.24567464  0.16434440     0.16960
O1286       O  0.59628231  0.28674376  0.18156275    -0.60080
H1287       H  0.58236656  0.29325148  0.15373341     0.43950
H1288       H  0.63900306  0.12312948  0.24111237     0.43910
C1289       C  0.48311467  0.22012755  0.20551949    -0.05150
C1290       C  0.45724306  0.18952725  0.22876313    -0.32580
C1291       C  0.41637239  0.17511547  0.21330819     0.36670
C1292       C  0.40200342  0.18871905  0.17151837    -0.05510
C1293       C  0.42138049  0.22918246  0.15779752    -0.32480
C1294       C  0.46344917  0.24216637  0.17084697     0.36570
H1295       H  0.46894029  0.17646905  0.25898330     0.16940
O1296       O  0.39065551  0.14842202  0.23939052    -0.59980
H1297       H  0.40410661  0.25043783  0.13617324     0.16960
O1298       O  0.48492518  0.27641837  0.14983620    -0.60080
H1299       H  0.46557519  0.30183297  0.15019253     0.43950
H1300       H  0.40937436  0.12959364  0.25752982     0.43910
C1301       C  0.14232145  0.30955113  0.14619681    -0.05150
C1302       C  0.12151288  0.32800283  0.18152604    -0.32580
C1303       C  0.08474256  0.30848427  0.20161728     0.36670
C1304       C  0.06635143  0.26878577  0.18723217    -0.05510
C1305       C  0.08221839  0.25375513  0.14881115    -0.32480
C1306       C  0.11641821  0.27627196  0.12650714     0.36570
H1307       H  0.13076716  0.35974978  0.19276702     0.16940
O1308       O  0.07026387  0.32628212  0.23829936    -0.59980
H1309       H  0.06621525  0.22589421  0.13448698     0.16960
O1310       O  0.12054760  0.26968357  0.08366719    -0.60080
H1311       H  0.11604029  0.23776618  0.07919323     0.43950
H1312       H  0.03924476  0.33160594  0.23396498     0.43910
C1313       C  0.98743582  0.19344142  0.25862466    -0.05150
C1314       C  0.96674861  0.21411460  0.29194094    -0.32580
C1315       C  0.92267667  0.20406475  0.30170533     0.36670
C1316       C  0.90511407  0.16203779  0.29381441    -0.05510
C1317       C  0.92416758  0.14270909  0.25797271    -0.32480
C1318       C  0.96325726  0.15948584  0.23925772     0.36570
H1319       H  0.98286611  0.24175976  0.30647989     0.16940
O1320       O  0.89451896  0.23716821  0.30967041    -0.61620
H1321       H  0.90829793  0.11555070  0.24288084     0.16960
O1322       O  0.97832539  0.14109945  0.20324921    -0.60080
H1323       H  0.96677604  0.15940701  0.17937206     0.43950
H1324       H  0.91145955  0.26384052  0.31725842     0.43910
C1325       C  0.90503526  0.29890379  0.15628116    -0.05150
C1326       C  0.90788386  0.28511236  0.19917181    -0.32580
C1327       C  0.94903864  0.27707384  0.21696308     0.36670
C1328       C  0.98315238  0.26232753  0.19152904    -0.05510
C1329       C  0.97646372  0.26584916  0.14751486    -0.32480
C1330       C  0.94066269  0.28754380  0.13036126     0.36570
H1331       H  0.88097927  0.28902077  0.22003485     0.16940
O1332       O  0.95763952  0.29316219  0.25618023    -0.59980
H1333       H  0.00092828  0.25626108  0.12573496     0.16960
O1334       O  0.94228265  0.30057163  0.08837752    -0.60080
H1335       H  0.96427906  0.32479022  0.08719120     0.43950
H1336       H  0.96614761  0.32451071  0.25133048     0.43910
C1337       C  0.07369377  0.19354408  0.25581858    -0.05150
C1338       C  0.11312315  0.21856616  0.25732849    -0.32580
C1339       C  0.15290071  0.20081141  0.27106374     0.36670
C1340       C  0.15411813  0.15909867  0.29184735    -0.05510
C1341       C  0.11598843  0.13257542  0.28758464    -0.32480
C1342       C  0.07708844  0.14886981  0.27009455     0.36570
H1343       H  0.11428509  0.25289576  0.24975414     0.16940
O1344       O  0.19015004  0.22550332  0.26511064    -0.59980
H1345       H  0.11591073  0.09882135  0.29963078     0.16960
O1346       O  0.04238311  0.12030530  0.26824613    -0.60080
H1347       H  0.04784820  0.10199913  0.24347428     0.43950
H1348       H  0.19981729  0.21924048  0.23600585     0.43910
C1349       C  0.31982112  0.94083444  0.18982371    -0.05150
C1350       C  0.35305901  0.92081423  0.21306796    -0.32580
C1351       C  0.36250099  0.87569911  0.20916293     0.36670
C1352       C  0.34781869  0.85097934  0.17356690    -0.05510
C1353       C  0.31059914  0.86937442  0.15402172    -0.32480
C1354       C  0.29689772  0.91308671  0.16164576     0.36570
H1355       H  0.36828774  0.93873945  0.23845415     0.16940
O1356       O  0.38629418  0.85640605  0.24083780    -0.59980
H1357       H  0.29198662  0.85031801  0.13187730     0.16960
O1358       O  0.26058806  0.92813948  0.14163634    -0.60080
H1359       H  0.27000161  0.93724687  0.11251177     0.43950
H1360       H  0.36640957  0.85224416  0.26533973     0.43910
C1361       C  0.25160513  0.02489783  0.25455615    -0.05150
C1362       C  0.22188724  0.05233282  0.23346807    -0.32580
C1363       C  0.20643743  0.09130865  0.25146248     0.36670
C1364       C  0.21859861  0.10449268  0.29360205    -0.05510
C1365       C  0.25345629  0.07940217  0.31072286    -0.32480
C1366       C  0.26811738  0.04003106  0.29323784     0.36570
H1367       H  0.21163894  0.04453165  0.20164775     0.16940
O1368       O  0.18091739  0.11680877  0.22563903    -0.59980
H1369       H  0.26789050  0.08630330  0.34071425     0.16960
O1370       O  0.30135882  0.01812083  0.31272142    -0.60080
H1371       H  0.29064838  0.00830666  0.34120607     0.43950
H1372       H  0.20114415  0.13741216  0.21019043     0.43910
C1373       C  0.36365906  0.11189193  0.15118972    -0.05150
C1374       C  0.36759624  0.07114835  0.13099941    -0.32580
C1375       C  0.34717316  0.03148213  0.14645736     0.36670
C1376       C  0.32351771  0.02994431  0.18500952    -0.05510
C1377       C  0.31882420  0.07190316  0.20327598    -0.32480
C1378       C  0.33340028  0.11185216  0.18391460     0.36570
H1379       H  0.38731194  0.07026993  0.10301783     0.16940
O1380       O  0.35126781  0.99445374  0.12346715    -0.59980
H1381       H  0.30550023  0.07649420  0.23350109     0.16960
O1382       O  0.31855895  0.15065874  0.19846215    -0.60080
H1383       H  0.29268867  0.15706717  0.18097492     0.43950
H1384       H  0.32939282  0.99692754  0.10053957     0.43910
C1385       C  0.20280448  0.85974191  0.27264389    -0.05150
C1386       C  0.18321121  0.89496377  0.24837089    -0.32580
C1387       C  0.20542324  0.93303024  0.23414391     0.36670
C1388       C  0.24825322  0.94020432  0.24604311    -0.05510
C1389       C  0.26964818  0.90383632  0.26522099    -0.32480
C1390       C  0.24821975  0.86233485  0.27207177     0.36570
H1391       H  0.14891772  0.89933866  0.24786094     0.16940
O1392       O  0.18346398  0.96472159  0.21156340    -0.59980
H1393       H  0.30303992  0.90693765  0.27426587     0.16960
O1394       O  0.27184936  0.82493485  0.27611011    -0.60080
H1395       H  0.27727674  0.81621481  0.24658300     0.43950
H1396       H  0.16416879  0.97802979  0.23235658     0.43910
C1397       C  0.23473912  0.27236253  0.94664909    -0.05150
C1398       C  0.25590270  0.28387730  0.90810088    -0.32580
C1399       C  0.23360701  0.29285943  0.87001783     0.36670
C1400       C  0.19240113  0.31163866  0.87106594    -0.05510
C1401       C  0.17263128  0.30909285  0.91188969    -0.32480
C1402       C  0.19029548  0.28307647  0.94630066     0.36570
H1403       H  0.29002884  0.28739810  0.90680408     0.16940
O1404       O  0.25496789  0.28862969  0.83236120    -0.59980
H1405       H  0.14169756  0.32373466  0.91638995     0.16960
O1406       O  0.16381546  0.26947959  0.97903593    -0.60080
H1407       H  0.14998686  0.24168657  0.96973896     0.43950
H1408       H  0.24660177  0.25887237  0.82286001     0.43910
C1409       C  0.32104388  0.20756102  0.01747016    -0.05150
C1410       C  0.36005500  0.22713781  0.03036961    -0.32580
C1411       C  0.38366790  0.21112644  0.06637991     0.36670
C1412       C  0.36698474  0.17537188  0.09372727    -0.05510
C1413       C  0.32647457  0.15728070  0.07986119    -0.32480
C1414       C  0.30527595  0.17141979  0.04220763     0.36570
H1415       H  0.37341759  0.25444997  0.01131420     0.16940
O1416       O  0.42508374  0.22766905  0.07097150    -0.59980
H1417       H  0.31026306  0.13060742  0.09726832     0.16960
O1418       O  0.26872069  0.14909528  0.02977789    -0.60080
H1419       H  0.27893497  0.12556089  0.01159784     0.43950
H1420       H  0.42408533  0.26013776  0.06695732     0.43910
C1421       C  0.21997641  0.29224085  0.11197482    -0.05150
C1422       C  0.20553147  0.25092449  0.09677472    -0.32580
C1423       C  0.21817879  0.23635733  0.05602934     0.36670
C1424       C  0.24908964  0.26131701  0.03153374    -0.05510
C1425       C  0.27378200  0.29239314  0.05407061    -0.32480
C1426       C  0.26120689  0.30501439  0.09512978     0.36570
H1427       H  0.18197198  0.23136743  0.11461890     0.16940
O1428       O  0.19668055  0.20134213  0.03854970    -0.59980
H1429       H  0.30281254  0.30689357  0.03993220     0.16960
O1430       O  0.29030778  0.32785505  0.11927275    -0.60080
H1431       H  0.30370246  0.30537754  0.13827787     0.43950
H1432       H  0.19706013  0.17702069  0.06034630     0.43910
C1433       C  0.32812199  0.17129160  0.85604572    -0.05150
C1434       C  0.34538521  0.21293453  0.86766837    -0.32580
C1435       C  0.33883303  0.22869412  0.90900024     0.36670
C1436       C  0.30636345  0.20960600  0.93570281    -0.05510
C1437       C  0.28013528  0.17670624  0.91881410    -0.32480
C1438       C  0.28998315  0.15743275  0.88009492     0.36570
H1439       H  0.37023476  0.22930072  0.84862935     0.16940
O1440       O  0.36370767  0.26343803  0.92252797    -0.59980
H1441       H  0.25339759  0.16315700  0.93755653     0.16960
O1442       O  0.26765804  0.11910411  0.87249256    -0.60080
H1443       H  0.23739390  0.12756485  0.86710932     0.43950
H1444       H  0.38975350  0.25009605  0.93524299     0.43910
C1445       C  0.63896093  0.64695149  0.64473664    -0.05150
C1446       C  0.62935257  0.69052252  0.65467468    -0.32580
C1447       C  0.58659126  0.70314502  0.65969439     0.36670
C1448       C  0.55548106  0.67289438  0.67595260    -0.05510
C1449       C  0.56667514  0.62821286  0.67540201    -0.32480
C1450       C  0.60608447  0.61507245  0.65665788     0.36570
H1451       H  0.65395513  0.71589413  0.65692210     0.16940
O1452       O  0.57546361  0.74494111  0.64742650    -0.59980
H1453       H  0.54529958  0.60308780  0.68909707     0.16960
O1454       O  0.61395511  0.57104115  0.65456489    -0.60080
H1455       H  0.58682638  0.55671362  0.64470666     0.43950
H1456       H  0.56363032  0.74246651  0.61828286     0.43910
C1457       C  0.70264826  0.59391530  0.64613856    -0.05150
C1458       C  0.71161907  0.55387769  0.62638259    -0.32580
C1459       C  0.73960881  0.52319587  0.64443039     0.36670
C1460       C  0.74706685  0.52115418  0.68829913    -0.05510
C1461       C  0.72971581  0.55573267  0.71161411    -0.32480
C1462       C  0.71175172  0.59350714  0.69053591     0.36570
H1463       H  0.69972080  0.54592804  0.59551031     0.16940
O1464       O  0.76321565  0.49853037  0.61784421    -0.59980
H1465       H  0.73215759  0.55491361  0.74591491     0.16960
O1466       O  0.70239064  0.62924307  0.71385397    -0.60080
H1467       H  0.67527904  0.62101098  0.72908045     0.43950
H1468       H  0.74768968  0.47012364  0.61645645     0.43910
C1469       C  0.71539017  0.67542610  0.61337151    -0.05150
C1470       C  0.69996117  0.71332148  0.59030544    -0.32580
C1471       C  0.71700896  0.72709743  0.55081166     0.36670
C1472       C  0.75283992  0.70658495  0.53446241    -0.05510
C1473       C  0.77572634  0.67861351  0.56275436    -0.32480
C1474       C  0.75897504  0.66613315  0.60347402     0.36570
H1475       H  0.66852832  0.72614239  0.59458901     0.16940
O1476       O  0.69728802  0.76003615  0.52777099    -0.59980
H1477       H  0.80602355  0.66542372  0.55289936     0.16960
O1478       O  0.78181922  0.63730196  0.62859246    -0.60080
H1479       H  0.78938841  0.65362087  0.65440440     0.43950
H1480       H  0.66718383  0.74952323  0.52303274     0.43910
C1481       C  0.39644695  0.31794118  0.65637093    -0.05150
C1482       C  0.39437155  0.29302351  0.69509401    -0.32580
C1483       C  0.43202490  0.27837366  0.71693671     0.36670
C1484       C  0.47309064  0.27711655  0.69626735    -0.05510
C1485       C  0.47472798  0.29983303  0.65662291    -0.32480
C1486       C  0.43898255  0.32173370  0.63828056     0.36570
H1487       H  0.36367561  0.28850512  0.71107514     0.16940
O1488       O  0.42831266  0.27118091  0.75986930    -0.59980
H1489       H  0.50513259  0.30346302  0.64003269     0.16960
O1490       O  0.44779547  0.35069375  0.60500215    -0.60080
H1491       H  0.46451024  0.33464998  0.58390925     0.43950
H1492       H  0.43926318  0.29868343  0.77257526     0.43910
C1493       C  0.31960203  0.35820421  0.66971633    -0.05150
C1494       C  0.33456823  0.37381437  0.70973085    -0.32580
C1495       C  0.32314986  0.41544869  0.72483009     0.36670
C1496       C  0.29114013  0.44025736  0.70420963    -0.05510
C1497       C  0.26736769  0.41899748  0.67285891    -0.32480
C1498       C  0.28125633  0.37995331  0.65464859     0.36570
H1499       H  0.36233453  0.35990335  0.72506581     0.16940
O1500       O  0.34657736  0.43362813  0.75720466    -0.59980
H1501       H  0.23827542  0.43369322  0.66070813     0.16960
O1502       O  0.25865367  0.36580644  0.61987366    -0.60080
H1503       H  0.25107195  0.39192475  0.60189172     0.43950
H1504       H  0.34714445  0.41093899  0.78058049     0.43910
C1505       C  0.33722517  0.31400260  0.59758771    -0.05150
C1506       C  0.36382926  0.30370764  0.56282545    -0.32580
C1507       C  0.34914361  0.27859217  0.52795900     0.36670
C1508       C  0.30498458  0.26881183  0.52116347    -0.05510
C1509       C  0.27872443  0.27564257  0.55715917    -0.32480
C1510       C  0.29585387  0.29222425  0.59599790     0.36570
H1511       H  0.39739634  0.31221706  0.56319871     0.16940
O1512       O  0.37915723  0.26034585  0.50281258    -0.59980
H1513       H  0.24495023  0.26643708  0.55649916     0.16960
O1514       O  0.27221140  0.28480592  0.63239995    -0.60080
H1515       H  0.28600719  0.25972133  0.64752886     0.43950
H1516       H  0.38641710  0.23217246  0.51758384     0.43910
C1517       C  0.71189366  0.36214044  0.31882640    -0.05150
C1518       C  0.75642429  0.36810379  0.30994492    -0.32580
C1519       C  0.77395203  0.40869027  0.29352758     0.36670
C1520       C  0.74713595  0.44068321  0.27432916    -0.05510
C1521       C  0.70309809  0.43213468  0.27664388    -0.32480
C1522       C  0.68538785  0.39586662  0.30016267     0.36570
H1523       H  0.77878405  0.34274521  0.31876119     0.16940
O1524       O  0.81701371  0.41745581  0.29906270    -0.59980
H1525       H  0.68170568  0.45455216  0.26053452     0.16960
O1526       O  0.64175643  0.39533060  0.30447063    -0.60080
H1527       H  0.62996365  0.38916562  0.27587255     0.43950
H1528       H  0.82036429  0.42457501  0.32940737     0.43910
C1529       C  0.73038262  0.29143967  0.37002758    -0.05150
C1530       C  0.72126219  0.24628941  0.38020648    -0.32580
C1531       C  0.73094948  0.22714951  0.42098781     0.36670
C1532       C  0.75775768  0.24923468  0.45041398    -0.05510
C1533       C  0.77450108  0.29038349  0.43702340    -0.32480
C1534       C  0.76155891  0.31155733  0.39844930     0.36570
H1535       H  0.69878333  0.22807231  0.36095761     0.16940
O1536       O  0.71087425  0.18807519  0.43291105    -0.59980
H1537       H  0.79610924  0.30782430  0.45809005     0.16960
O1538       O  0.77296439  0.35530292  0.39392943    -0.60080
H1539       H  0.80468179  0.35634671  0.38987543     0.43950
H1540       H  0.68367586  0.19617979  0.44671230     0.43910
C1541       C  0.57307255  0.27122924  0.28166313    -0.05150
C1542       C  0.61302263  0.24885402  0.27873254    -0.32580
C1543       C  0.65265243  0.26557974  0.29591895     0.36670
C1544       C  0.65276446  0.30061776  0.32413559    -0.05510
C1545       C  0.61139848  0.31858425  0.33093643    -0.32480
C1546       C  0.57415172  0.30733330  0.30853101     0.36570
H1547       H  0.61474089  0.21804916  0.26338503     0.16940
O1548       O  0.69052040  0.24661349  0.28530978    -0.59980
H1549       H  0.60735928  0.34456085  0.35290326     0.16960
O1550       O  0.53944917  0.33399725  0.31238318    -0.60080
H1551       H  0.52920956  0.32937016  0.34207310     0.43950
H1552       H  0.70148250  0.26426706  0.26037524     0.43910
C1553       C  0.40366823  0.64800380  0.32011367    -0.05150
C1554       C  0.42131404  0.69123530  0.32683085    -0.32580
C1555       C  0.46460054  0.70472503  0.31718767     0.36670
C1556       C  0.48892400  0.68193510  0.28783423    -0.05510
C1557       C  0.47347702  0.63881608  0.28044310    -0.32480
C1558       C  0.43383590  0.62098121  0.29856929     0.36570
H1559       H  0.40188283  0.71671017  0.33896961     0.16940
O1560       O  0.47963092  0.74478484  0.33041714    -0.59980
H1561       H  0.49291737  0.61806854  0.26134822     0.16960
O1562       O  0.42586773  0.57684974  0.29496936    -0.60080
H1563       H  0.42694219  0.57099353  0.26420033     0.43950
H1564       H  0.49217174  0.73864086  0.35894464     0.43910
C1565       C  0.33477140  0.67120330  0.36332941    -0.05150
C1566       C  0.35888987  0.68717437  0.39867519    -0.32580
C1567       C  0.34009756  0.71122453  0.43104982     0.36670
C1568       C  0.29527136  0.71266058  0.43526993    -0.05510
C1569       C  0.27106496  0.70097174  0.39879987    -0.32480
C1570       C  0.29118123  0.68500213  0.36181355     0.36570
H1571       H  0.39237975  0.67916676  0.40282003     0.16940
O1572       O  0.36589929  0.73446897  0.45787347    -0.59980
H1573       H  0.23653954  0.70496961  0.39831235     0.16960
O1574       O  0.26756333  0.68292994  0.32508482    -0.60080
H1575       H  0.27406856  0.71110769  0.30935979     0.43950
H1576       H  0.37392076  0.76208214  0.44185100     0.43910
C1577       C  0.32418033  0.61629728  0.29710043    -0.05150
C1578       C  0.34339854  0.60606716  0.25772084    -0.32580
C1579       C  0.33468958  0.56505081  0.23784027     0.36670
C1580       C  0.30331398  0.53461105  0.25470009    -0.05510
C1581       C  0.27613406  0.55068791  0.28598472    -0.32480
C1582       C  0.28501498  0.59097178  0.30632927     0.36570
H1583       H  0.36945537  0.62677285  0.24507895     0.16940
O1584       O  0.35942261  0.55354831  0.20415559    -0.59980
H1585       H  0.24920617  0.53013736  0.29720806     0.16960
O1586       O  0.26057567  0.59944721  0.34130093    -0.60080
H1587       H  0.26261945  0.57355176  0.36117337     0.43950
H1588       H  0.35567361  0.57705514  0.18193952     0.43910
C1589       C  0.72085492  0.65642395  0.37502774    -0.05150
C1590       C  0.69818402  0.69025439  0.39548888    -0.32580
C1591       C  0.71467098  0.71315447  0.43110033     0.36670
C1592       C  0.75260143  0.69972133  0.45215248    -0.05510
C1593       C  0.77444260  0.66541725  0.43350110    -0.32480
C1594       C  0.76382928  0.65241875  0.39176685     0.36570
H1595       H  0.66839028  0.70241077  0.38291498     0.16940
O1596       O  0.69449801  0.75016394  0.44341581    -0.59980
H1597       H  0.80564063  0.65689498  0.44649395     0.16960
O1598       O  0.79845556  0.64923961  0.36517906    -0.60080
H1599       H  0.79884459  0.67645481  0.34690057     0.43950
H1600       H  0.66392784  0.74122456  0.44848026     0.43910
C1601       C  0.66017751  0.66017188  0.31651910    -0.05150
C1602       C  0.62051052  0.65458589  0.33882249    -0.32580
C1603       C  0.58002380  0.66787982  0.32343324     0.36670
C1604       C  0.57609826  0.69316560  0.28504315    -0.05510
C1605       C  0.61757156  0.70875167  0.26883261    -0.32480
C1606       C  0.65825660  0.69203407  0.28308553     0.36570
H1607       H  0.62093276  0.64028156  0.36995966     0.16940
O1608       O  0.54503862  0.65848446  0.34896786    -0.59980
H1609       H  0.62094857  0.73644155  0.24746458     0.16960
O1610       O  0.69564545  0.70993551  0.26609476    -0.60080
H1611       H  0.70389277  0.73437817  0.28474545     0.43950
H1612       H  0.54000241  0.62621015  0.34785750     0.43910
C1613       C  0.73695593  0.61300126  0.30203826    -0.05150
C1614       C  0.76627682  0.58172645  0.32091908    -0.32580
C1615       C  0.77453532  0.54050287  0.30428143     0.36670
C1616       C  0.75497151  0.52757618  0.26672171    -0.05510
C1617       C  0.73282108  0.56051195  0.24334911    -0.32480
C1618       C  0.72707623  0.60351313  0.25875720     0.36570
H1619       H  0.77461194  0.58180633  0.35383815     0.16940
O1620       O  0.79876059  0.51132441  0.32766125    -0.59980
H1621       H  0.71788878  0.55240639  0.21358464     0.16960
O1622       O  0.70404553  0.63211607  0.23382126    -0.60080
H1623       H  0.72511579  0.64500485  0.21296844     0.43950
H1624       H  0.82886434  0.51717748  0.31817269     0.43910
C1625       C  0.35022605  0.37102145  0.30156984    -0.05150
C1626       C  0.31672562  0.36643226  0.27183365    -0.32580
C1627       C  0.30622487  0.40172698  0.24306232     0.36670
C1628       C  0.31731582  0.44662577  0.25192201    -0.05510
C1629       C  0.35582628  0.44964753  0.27576784    -0.32480
C1630       C  0.37354348  0.41222955  0.29765253     0.36570
H1631       H  0.30429749  0.33365374  0.26578389     0.16940
O1632       O  0.30045553  0.38996328  0.20189039    -0.59980
H1633       H  0.37287487  0.48097216  0.27730534     0.16960
O1634       O  0.41471869  0.41554389  0.31316465    -0.60080
H1635       H  0.43374414  0.41571952  0.28791877     0.43950
H1636       H  0.32947085  0.39200848  0.18870110     0.43910
C1637       C  0.33086465  0.29522094  0.34811404    -0.05150
C1638       C  0.34561064  0.25627622  0.36872840    -0.32580
C1639       C  0.33762939  0.24599991  0.41248576     0.36670
C1640       C  0.30530628  0.26760546  0.43481125    -0.05510
C1641       C  0.28037357  0.29687635  0.40943966    -0.32480
C1642       C  0.29113961  0.30847745  0.36621358     0.36570
H1643       H  0.36523577  0.23431663  0.35146717     0.16940
O1644       O  0.35976716  0.21264142  0.43226843    -0.59980
H1645       H  0.25208486  0.31084776  0.42314255     0.16960
O1646       O  0.26588972  0.33803005  0.34464661    -0.60080
H1647       H  0.24432986  0.31978304  0.32941780     0.43950
H1648       H  0.39070310  0.22147617  0.43011715     0.43910
C1649       C  0.40815003  0.30935374  0.31007152    -0.05150
C1650       C  0.43334351  0.27677838  0.33189961    -0.32580
C1651       C  0.47166885  0.25990066  0.31571462     0.36670
C1652       C  0.48791267  0.27493450  0.27629119    -0.05510
C1653       C  0.46349854  0.30570370  0.25314676    -0.32480
C1654       C  0.42373266  0.32080675  0.26800637     0.36570
H1655       H  0.42564043  0.26497730  0.36361621     0.16940
O1656       O  0.49339451  0.22879506  0.33928280    -0.59980
H1657       H  0.47516993  0.31796221  0.22256550     0.16960
O1658       O  0.40075383  0.34615462  0.23975220    -0.60080
H1659       H  0.38441967  0.32494906  0.22221235     0.43950
H1660       H  0.51088070  0.24553700  0.35994195     0.43910
C1661       C  0.71516011  0.34880330  0.67236185    -0.05150
C1662       C  0.75793689  0.36341518  0.65999415    -0.32580
C1663       C  0.77687833  0.40510227  0.67065692     0.36670
C1664       C  0.75319153  0.43614304  0.69275866    -0.05510
C1665       C  0.71260958  0.42271729  0.70631551    -0.32480
C1666       C  0.69533123  0.38024139  0.70038944     0.36570
H1667       H  0.77621257  0.34550984  0.63787825     0.16940
O1668       O  0.81806939  0.41580546  0.65764966    -0.59980
H1669       H  0.69411599  0.44533648  0.72442402     0.16960
O1670       O  0.65464630  0.37532277  0.71665083    -0.60080
H1671       H  0.65792038  0.37532188  0.74806250     0.43950
H1672       H  0.81564589  0.42375544  0.62694162     0.43910
C1673       C  0.64739798  0.28740490  0.66414459    -0.05150
C1674       C  0.63458691  0.29457396  0.70595165    -0.32580
C1675       C  0.59028857  0.29561434  0.71678083     0.36670
C1676       C  0.55924241  0.27088789  0.69424540    -0.05510
C1677       C  0.57482080  0.25026361  0.65823635    -0.32480
C1678       C  0.61782505  0.25786629  0.64331623     0.36570
H1679       H  0.65863133  0.30284412  0.72935289     0.16940
O1680       O  0.57803237  0.32032954  0.74993047    -0.59980
H1681       H  0.55427659  0.22630572  0.64278014     0.16960
O1682       O  0.63245191  0.22844371  0.61518855    -0.60080
H1683       H  0.64683630  0.20545832  0.63282712     0.43950
H1684       H  0.56651166  0.34758402  0.73654468     0.43910
C1685       C  0.70874317  0.28676495  0.60657781    -0.05150
C1686       C  0.75152450  0.27215724  0.60931904    -0.32580
C1687       C  0.77394175  0.25609730  0.57333916     0.36670
C1688       C  0.75203173  0.24576426  0.53474596    -0.05510
C1689       C  0.70821089  0.25593510  0.53379292    -0.32480
C1690       C  0.68766262  0.27758795  0.56693212     0.36570
H1691       H  0.76907525  0.27565102  0.63875732     0.16940
O1692       O  0.81793993  0.25726984  0.57452872    -0.59980
H1693       H  0.68958526  0.24861422  0.50577517     0.16960
O1694       O  0.64601564  0.28989865  0.55971215    -0.60080
H1695       H  0.64842525  0.31868737  0.54446633     0.43950
H1696       H  0.82623057  0.24341424  0.60221001     0.43910
C1697       C  0.67296055  0.62223913  0.48281928    -0.05150
C1698       C  0.64814536  0.65357436  0.50283167    -0.32580
C1699       C  0.64352522  0.64987637  0.54743743     0.36670
C1700       C  0.67405395  0.62567922  0.57258537    -0.05510
C1701       C  0.70886279  0.60885713  0.54879123    -0.32480
C1702       C  0.70910836  0.60826348  0.50481512     0.36570
H1703       H  0.62319389  0.67006346  0.48469396     0.16940
O1704       O  0.61026795  0.67129040  0.56539534    -0.59980
H1705       H  0.73797878  0.59733445  0.56372060     0.16960
O1706       O  0.74097530  0.58657256  0.48478810    -0.60080
H1707       H  0.73554040  0.55486098  0.49179075     0.43950
H1708       H  0.58539108  0.65017482  0.56491469     0.43910
C1709       C  0.38129032  0.48505753  0.62010765    -0.05150
C1710       C  0.35031688  0.46437958  0.59428223    -0.32580
C1711       C  0.34710826  0.41784899  0.59328314     0.36670
C1712       C  0.37050818  0.39129378  0.62310945    -0.05510
C1713       C  0.39558482  0.41471768  0.65353319    -0.32480
C1714       C  0.39477253  0.46065639  0.65587214     0.36570
H1715       H  0.33507663  0.48368065  0.56915582     0.16940
O1716       O  0.32058237  0.39864994  0.56383759    -0.59980
H1717       H  0.41238681  0.39732359  0.67884478     0.16960
O1718       O  0.41770979  0.48103763  0.68729897    -0.60080
H1719       H  0.44854049  0.47869819  0.67963728     0.43950
H1720       H  0.32640978  0.41415819  0.53619592     0.43910
C1721       C  0.67502150  0.33516631  0.39036681    -0.05150
C1722       C  0.68293058  0.37702779  0.40687446    -0.32580
C1723       C  0.66742304  0.38574248  0.44708102     0.36670
C1724       C  0.64253342  0.35308814  0.46883610    -0.05510
C1725       C  0.64560418  0.30993099  0.45870146    -0.32480
C1726       C  0.65410136  0.30186533  0.41717074     0.36570
H1727       H  0.69990080  0.40290996  0.38884474     0.16940
O1728       O  0.66816700  0.42809223  0.46055777    -0.59980
H1729       H  0.62757729  0.28468607  0.47690021     0.16960
O1730       O  0.63990037  0.26197279  0.40250802    -0.60080
H1731       H  0.60794084  0.26276870  0.40220524     0.43950
H1732       H  0.69542349  0.43114753  0.47681824     0.43910
C1733       C  0.35379746  0.59038085  0.36621925    -0.05150
C1734       C  0.35410735  0.54845799  0.34657846    -0.32580
C1735       C  0.33887588  0.51119802  0.36935339     0.36670
C1736       C  0.35177178  0.50985912  0.41078123    -0.05510
C1737       C  0.33817515  0.54599638  0.43195287    -0.32480
C1738       C  0.33811321  0.58706448  0.41001411     0.36570
H1739       H  0.36049888  0.54444267  0.31385088     0.16940
O1740       O  0.32510509  0.47382393  0.35046987    -0.59980
H1741       H  0.32279623  0.54130648  0.46261640     0.16960
O1742       O  0.31288852  0.61767583  0.42773841    -0.60080
H1743       H  0.32441890  0.62231795  0.45669337     0.43950
H1744       H  0.29320782  0.47468693  0.35113396     0.43910
C1745       C  0.65079892  0.49689019  0.33526465    -0.05150
C1746       C  0.67864890  0.50917814  0.36835204    -0.32580
C1747       C  0.69210058  0.55357723  0.37202049     0.36670
C1748       C  0.67891410  0.58556843  0.34105703    -0.05510
C1749       C  0.65508843  0.56922310  0.30564824    -0.32480
C1750       C  0.64855239  0.52471155  0.29953233     0.36570
H1751       H  0.68358407  0.48643816  0.39501540     0.16940
O1752       O  0.71591068  0.56569353  0.40654092    -0.59980
H1753       H  0.64499227  0.59080397  0.27967088     0.16960
O1754       O  0.62485408  0.51196574  0.26487151    -0.60080
H1755       H  0.64322338  0.51927670  0.23975594     0.43950
H1756       H  0.73956295  0.54447165  0.40957850     0.43910
C1757       C  0.36713370  0.35925194  0.46408609    -0.05150
C1758       C  0.39716030  0.33052049  0.44723245    -0.32580
C1759       C  0.40709778  0.33472331  0.40394732     0.36670
C1760       C  0.37686321  0.35271045  0.37501694    -0.05510
C1761       C  0.34337646  0.37723885  0.39304035    -0.32480
C1762       C  0.33543612  0.37567749  0.43677261     0.36570
H1763       H  0.42315922  0.31948002  0.46777149     0.16940
O1764       O  0.44968223  0.33230636  0.39287745    -0.59980
H1765       H  0.31946288  0.39277832  0.37306387     0.16960
O1766       O  0.30162308  0.39818282  0.45266311    -0.60080
H1767       H  0.31029598  0.42976451  0.45004838     0.43950
H1768       H  0.46062270  0.36318195  0.38990203     0.43910
C1769       C  0.66753055  0.35530483  0.61515390    -0.05150
C1770       C  0.63273458  0.37711820  0.63285328    -0.32580
C1771       C  0.63511846  0.42271888  0.63546633     0.36670
C1772       C  0.65889040  0.44657699  0.60417613    -0.05510
C1773       C  0.69059349  0.42578663  0.58198398    -0.32480
C1774       C  0.69550883  0.38086310  0.58702283     0.36570
H1775       H  0.60863740  0.35962207  0.65194431     0.16940
O1776       O  0.60429298  0.44309642  0.65837002    -0.59980
H1777       H  0.70879581  0.44380668  0.55734727     0.16960
O1778       O  0.72986407  0.36328990  0.56686566    -0.60080
H1779       H  0.72140392  0.36208557  0.53650077     0.43950
H1780       H  0.62057665  0.46077126  0.67920107     0.43910
C1781       C  0.38354853  0.66007871  0.65274150    -0.05150
C1782       C  0.39703012  0.70268953  0.66324303    -0.32580
C1783       C  0.44145475  0.71292184  0.66884726     0.36670
C1784       C  0.47065738  0.67923491  0.67910245    -0.05510
C1785       C  0.45547036  0.63591398  0.67695588    -0.32480
C1786       C  0.41377572  0.62613640  0.66226566     0.36570
H1787       H  0.37537660  0.72912623  0.66039187     0.16940
O1788       O  0.45746947  0.75488515  0.65981518    -0.59980
H1789       H  0.47582067  0.60898202  0.68598987     0.16960
O1790       O  0.40309099  0.58274676  0.65651184    -0.60080
H1791       H  0.40339393  0.56831908  0.68524758     0.43950
H1792       H  0.43340606  0.77564483  0.66091846     0.43910
C1793       C  0.28868179  0.71044105  0.52015394    -0.05150
C1794       C  0.31128616  0.73690464  0.54912858    -0.32580
C1795       C  0.31443615  0.72490957  0.59322848     0.36670
C1796       C  0.30548741  0.68082767  0.60774435    -0.05510
C1797       C  0.27363935  0.66024432  0.58164985    -0.32480
C1798       C  0.26732757  0.67286622  0.53818844     0.36570
H1799       H  0.32440164  0.76844962  0.53812299     0.16940
O1800       O  0.32077164  0.75732668  0.62201181    -0.59980
H1801       H  0.25525391  0.63213975  0.59381156     0.16960
O1802       O  0.23981744  0.64833145  0.51374350    -0.60080
H1803       H  0.21045633  0.65437159  0.52398858     0.43950
H1804       H  0.34376825  0.77758309  0.61044004     0.43910
C1805       C  0.31991539  0.60738032  0.64927515    -0.05150
C1806       C  0.29977242  0.57175521  0.62862533    -0.32580
C1807       C  0.28674707  0.53260670  0.65046210     0.36670
C1808       C  0.29462153  0.52629147  0.69450894    -0.05510
C1809       C  0.31298949  0.56200342  0.71581748    -0.32480
C1810       C  0.32131061  0.60288856  0.69470548     0.36570
H1811       H  0.29306290  0.57354980  0.59497134     0.16940
O1812       O  0.26472585  0.50155244  0.62804317    -0.59980
H1813       H  0.31802193  0.55927211  0.74985775     0.16960
O1814       O  0.33223308  0.63794783  0.71914465    -0.60080
H1815       H  0.30539899  0.65468189  0.72148317     0.43950
H1816       H  0.23416685  0.51028872  0.62867776     0.43910
C1817       C  0.36589916  0.64228231  0.58211022    -0.05150
C1818       C  0.36619476  0.60253214  0.56087132    -0.32580
C1819       C  0.38397528  0.60071257  0.52017509     0.36670
C1820       C  0.40290477  0.63930984  0.50130963    -0.05510
C1821       C  0.39902561  0.67884248  0.51973606    -0.32480
C1822       C  0.38741937  0.67953487  0.56139765     0.36570
H1823       H  0.35870529  0.57174486  0.57706772     0.16940
O1824       O  0.39442365  0.56056063  0.50458430    -0.59980
H1825       H  0.41719936  0.70740479  0.50710023     0.16960
O1826       O  0.39827893  0.71761522  0.58124346    -0.60080
H1827       H  0.43028391  0.71932486  0.58187058     0.43950
H1828       H  0.37326523  0.53811697  0.51578335     0.43910
loop_ 
_geom_bond_atom_site_label_1 
_geom_bond_atom_site_label_2 
_geom_bond_distance 
_geom_bond_site_symmetry_2 
_ccdc_geom_bond_type 
C1         C1781   1.585       .  S
C1         C1796   1.607       .  S
C1         C1805   1.596       .  S
C1         C1817   1.551       .  S
C2           N20   1.342       .  A
C2           C39   1.435       .  S
C2         C1820   1.419       .  S
N3           N20   1.301       .  A
N3           N25   1.308       .  A
N3          Co40   2.019       .  S
C4           N29   1.341       .  A
C4           C42   1.451       .  S
C4           H49   1.075       .  S
H5           C46   1.069       .  S
C6           N30   1.340       .  A
C6           C10   1.453       .  S
C6           H35   1.061       .  S
Co7          N25   1.998       .  S
Co7          N15   2.033       .  S
Co7          N47   2.060       .  S
Co7          N23   2.035       .  S
Co7         Cl51   2.391       .  S
N8           C46   1.325       .  A
N8           N15   1.311       .  A
N8           Co9   2.061       .  S
Co9          N12   2.060       .  S
Co9          N29   2.017       .  S
Co9          N16   2.059       .  S
Co9         Cl51   2.407       .  S
C10          N48   1.328       .  A
C10        C1757   1.443       .  S
N11          N18   1.314       .  A
N11          N41   1.292       .  A
N11         Co44   1.997       .  S
N12          N30   1.300       .  A
N12          N48   1.294       .  A
N13          C42   1.336       .  A
N13          N23   1.298       .  A
H14          C39   1.081       .  S
N15          N36   1.317       .  A
N16          N34   1.310       .  A
N16          N21   1.309       .  A
C17          N21   1.345       .  A
C17          C45   1.422       .  S
C17        C1724   1.424       .  S
N18          C33   1.349       .  A
N18         Co40   2.070       .  S
C19          N47   1.329       .  A
C19          C22   1.454       .  S
C19          H53   1.054       .  S
C22          N43   1.338       .  A
C22        C1697   1.450       .  S
N23          N29   1.311       .  A
N24          C50   1.337       .  A
N24          N26   1.303       .  A
N24         Co40   2.007       .  S
N25          C39   1.328       .  A
N26          N54   1.294       .  A
N26         Co44   2.002       .  S
H27          C50   1.076       .  S
H28          C45   1.080       .  S
N30         Co44   2.009       .  S
N31          N43   1.303       .  A
N31          N47   1.311       .  A
N31         Co40   2.021       .  S
C32          N36   1.343       .  A
C32          C46   1.441       .  S
C32        C1736   1.461       .  S
C33          C52   1.476       .  S
C33          H37   1.076       .  S
N34          C45   1.326       .  A
N34         Co44   1.984       .  S
C38          N54   1.332       .  A
C38          C50   1.444       .  S
C38        C1772   1.413       .  S
Co40        Cl51   2.436       .  S
N41          C52   1.324       .  A
C42        C1745   1.435       .  S
Co44        Cl51   2.413       .  S
C52        C1709   1.448       .  S
C55        C1661   1.656       .  S
C55        C1673   1.629       .  S
C55        C1685   1.619       .  S
C55        C1769   1.538       .  S
C56        C1625   1.603       .  S
C56        C1637   1.616       .  S
C56        C1649   1.627       .  S
C56        C1760   1.560       .  S
C57        C1589   1.639       .  S
C57        C1601   1.625       .  S
C57        C1613   1.621       .  S
C57        C1748   1.569       .  S
C58        C1553   1.657       .  S
C58        C1565   1.606       .  S
C58        C1577   1.620       .  S
C58        C1733   1.588       .  S
C59        C1517   1.606       .  S
C59        C1529   1.616       .  S
C59        C1544   1.605       .  S
C59        C1721   1.531       .  S
C60        C1481   1.620       .  S
C60        C1493   1.613       .  S
C60        C1505   1.626       .  S
C60        C1712   1.571       .  S
C61        C1445   1.599       .  S
C61        C1457   1.605       .  S
C61        C1469   1.590       .  S
C61        C1700   1.575       .  S
C62          C63   1.390       .  D
C62        C1409   1.529   1_556  S
C62        C1436   1.516       .  S
C63        C1397   1.572       .  S
C63        C1424   1.534   1_556  S
C64          C65   1.399       .  D
C64        C1361   1.540   1_565  S
C64        C1388   1.522       .  S
C65        C1349   1.555       .  S
C65        C1376   1.568   1_565  S
C66          C67   1.406       .  D
C66        C1313   1.540   1_455  S
C66        C1337   1.570       .  S
C67        C1304   1.527       .  S
C67        C1328   1.539   1_455  S
C68          C69   1.390       .  D
C68        C1541   1.558       .  S
C68        C1652   1.530       .  S
C69        C1277   1.511       .  S
C69        C1289   1.521       .  S
C70          C71   1.400       .  D
C70        C1508   1.573       .  S
C70        C1640   1.554       .  S
C71        C1253   1.551       .  S
C71        C1265   1.551       .  S
C72          C73   1.397       .  D
C72        C1580   1.545       .  S
C72        C1628   1.593       .  S
C73        C1232   1.506       .  S
C73        C1241   1.533       .  S
C74          C75   1.402       .  D
C74        C1205   1.552   1_556  S
C74        C1217   1.541       .  S
C75        C1181   1.558   1_556  S
C75        C1193   1.559       .  S
C76          C77   1.381       .  D
C76        C1160   1.542   1_556  S
C76        C1169   1.501       .  S
C77        C1136   1.525   1_556  S
C77        C1145   1.557       .  S
C78          C79   1.381       .  D
C78        C1112   1.544   1_455  S
C78        C1124   1.521       .  S
C79        C1088   1.522       .  S
C79        C1097   1.514   1_455  S
C80          C81   1.375       .  D
C80        C1520   1.525       .  S
C80        C1616   1.535       .  S
C81        C1061   1.495       .  S
C81        C1073   1.508       .  S
C82          C83   1.391       .  D
C82        C1496   1.535       .  S
C82        C1808   1.518       .  S
C83        C1037   1.543       .  S
C83        C1049   1.496       .  S
C84         C989   1.599       .  S
C84        C1001   1.608       .  S
C84        C1013   1.613       .  S
C84        C1025   1.561       .  S
C85         N103   1.340       .  A
C85         C122   1.478   1_554  S
C85        C1028   1.479   1_554  S
N86         N103   1.314   1_556  A
N86         N108   1.307       .  A
N86        Co123   2.022       .  S
C87         N112   1.314       .  A
C87         C125   1.449       .  S
C87         H132   1.080       .  S
H88         C129   1.080       .  S
C89         N113   1.339       .  A
C89          C93   1.443       .  S
C89         H118   1.070       .  S
Co90        N108   2.072       .  S
Co90         N98   2.056       .  S
Co90        N130   2.086       .  S
Co90        N106   2.085       .  S
Co90       Cl134   2.333   1_655  S
N91         C129   1.332   1_556  A
N91          N98   1.306       .  A
N91         Co92   2.031   1_655  S
Co92         N95   2.027   1_556  S
Co92        N112   2.004       .  S
Co92         N99   2.066       .  S
Co92       Cl134   2.476       .  S
C93         N131   1.337       .  A
C93         C977   1.453   1_455  S
N94         N101   1.293       .  A
N94         N124   1.328       .  A
N94        Co127   2.072       .  S
N95         N113   1.317       .  A
N95         N131   1.311       .  A
N96         C125   1.344       .  A
N96         N106   1.318   1_455  A
H97         C122   1.082       .  S
N98         N119   1.304       .  A
N99         N117   1.308       .  A
N99         N104   1.311       .  A
C100        N104   1.357       .  A
C100        C128   1.438       .  S
C100        C908   1.458   1_556  S
N101        C116   1.288       .  A
N101       Co123   1.904   1_454  S
C102        N130   1.351       .  A
C102        C105   1.475       .  S
C102        H136   1.076       .  S
C105        N126   1.329       .  A
C105        C956   1.476   1_655  S
N106        N112   1.312   1_655  A
N107        C133   1.331       .  A
N107        N109   1.312       .  A
N107       Co123   2.048   1_455  S
N108        C122   1.329       .  A
N109        N137   1.309       .  A
N109       Co127   2.080   1_556  S
H110        C133   1.080       .  S
H111        C128   1.083       .  S
N113       Co127   2.085       .  S
N114        N126   1.298       .  A
N114        N130   1.303       .  A
N114       Co123   2.007       .  S
C115        N119   1.346       .  A
C115        C129   1.477   1_556  S
C115        C944   1.483       .  S
C116        C135   1.433       .  S
C116        H120   1.081   1_455  S
N117        C128   1.326       .  A
N117       Co127   2.003   1_556  S
C121        N137   1.341       .  A
C121        C133   1.479       .  S
C121        C917   1.488   1_556  S
Co123      Cl134   2.424   1_655  S
N124        C135   1.357       .  A
C125        C965   1.466       .  S
Co127      Cl134   2.328   1_554  S
C135        C929   1.441   1_455  S
C138        C980   1.586       .  S
C138       C1076   1.607       .  S
C138       C1157   1.640       .  S
C138       C1325   1.588       .  S
C139        C968   1.554       .  S
C139       C1052   1.602       .  S
C139       C1121   1.589       .  S
C139       C1400   1.600       .  S
C140        C893   1.606       .  S
C140        C953   1.586       .  S
C140       C1040   1.597       .  S
C140       C1196   1.656       .  S
C141        C881   1.583       .  S
C141        C941   1.549       .  S
C141       C1109   1.567       .  S
C141       C1172   1.602       .  S
C142        C857   1.593       .  S
C142        C872   1.610       .  S
C142        C932   1.563       .  S
C142       C1064   1.588       .  S
C143        C144   1.393       .  D
C143       C1460   1.537       .  S
C143       C1664   1.535       .  S
C144        C884   1.547       .  S
C144       C1016   1.549       .  S
C145        C845   1.592       .  S
C145        C920   1.563       .  S
C145       C1184   1.600       .  S
C145       C1244   1.614       .  S
C146        C905   1.553       .  S
C146       C1229   1.613       .  S
C146       C1301   1.616       .  S
C146       C1421   1.621       .  S
C147        C148   1.417       .  D
C147        C797   1.532       .  S
C147        C809   1.543   1_565  S
C148        C821   1.566   1_565  S
C148        C833   1.575       .  S
C149        C150   1.420       .  D
C149        C773   1.564       .  S
C149        C785   1.545       .  S
C150       C1556   1.565       .  S
C150       C1604   1.596       .  S
C151        C152   1.404       .  D
C151       C1484   1.570       .  S
C151       C1676   1.549       .  S
C152        C749   1.539       .  S
C152        C764   1.544       .  S
C153        C728   1.609       .  S
C153        C737   1.561       .  S
C153        C761   1.630       .  S
C153       C1148   1.652       .  S
C154        N172   1.325       .  A
C154        C191   1.460   1_556  S
C154        C692   1.438       .  S
N155        N172   1.287       .  A
N155        N177   1.311   1_556  A
N155       Co192   1.994   1_545  S
C156        N181   1.336       .  A
C156        C194   1.446       .  S
C156        H201   1.080       .  S
H157        C198   1.072       .  S
C158        N182   1.333       .  A
C158        C162   1.424       .  S
C158        H187   1.072       .  S
Co159       N177   2.037   1_565  S
Co159       N167   2.117   1_565  S
Co159       N199   1.994   1_554  S
Co159       N175   2.064       .  S
Co159      Cl203   2.411   1_554  S
N160        C198   1.334       .  A
N160        N167   1.315       .  A
N160       Co161   2.004   1_545  S
Co161       N164   2.032   1_564  S
Co161       N181   2.009       .  S
Co161       N168   2.058   1_554  S
Co161      Cl203   2.335   1_554  S
C162        N200   1.337   1_556  A
C162        C641   1.413   1_556  S
N163        N170   1.310       .  A
N163        N193   1.297       .  A
N163       Co196   2.027       .  S
N164        N182   1.300       .  A
N164        N200   1.300   1_556  A
N165        C194   1.330       .  A
N165        N175   1.305       .  A
H166        C191   1.073       .  S
N167        N188   1.311       .  A
N168        N186   1.300       .  A
N168        N173   1.288       .  A
C169        N173   1.315       .  A
C169        C197   1.497       .  S
C169        C713   1.450   1_556  S
N170        C185   1.335       .  A
N170       Co192   2.032   1_545  S
C171        N199   1.330       .  A
C171        C174   1.429       .  S
C171        H205   1.079   1_556  S
C174        N195   1.349       .  A
C174        C704   1.409       .  S
N175        N181   1.295       .  A
N176        C202   1.318       .  A
N176        N178   1.306       .  A
N176       Co192   1.988       .  S
N177        C191   1.348       .  A
N178        N206   1.311       .  A
N178       Co196   2.050   1_565  S
H179        C202   1.069       .  S
H180        C197   1.081       .  S
N182       Co196   1.948       .  S
N183        N195   1.306       .  A
N183        N199   1.312       .  A
N183       Co192   2.055       .  S
C184        N188   1.343       .  A
C184        C198   1.442       .  S
C184        C653   1.435       .  S
C185        C204   1.457       .  S
C185        H189   1.072       .  S
N186        C197   1.353       .  A
N186       Co196   2.099   1_565  S
C190        N206   1.351       .  A
C190        C202   1.437       .  S
C190        C677   1.446       .  S
Co192      Cl203   2.347       .  S
N193        C204   1.342       .  A
C194        C665   1.466       .  S
Co196      Cl203   2.451   1_545  S
C204        C740   1.438       .  S
C207        C617   1.634       .  S
C207        C629   1.624       .  S
C207        C716   1.551       .  S
C207        C788   1.637       .  S
C208        C605   1.623       .  S
C208        C701   1.542       .  S
C208        C836   1.628       .  S
C208       C1220   1.646       .  S
C209        C689   1.602       .  S
C209        C752   1.655       .  S
C209        C824   1.600       .  S
C209       C1433   1.601       .  S
C210        C569   1.657       .  S
C210        C581   1.599       .  S
C210        C593   1.589       .  S
C210        C680   1.543       .  S
C211        C668   1.573       .  S
C211        C776   1.579       .  S
C211       C1208   1.666       .  S
C211       C1352   1.626       .  S
C212        C213   1.387       .  D
C212        C596   1.526       .  S
C212        C608   1.550       .  S
C213       C1448   1.536       .  S
C213       C1784   1.512       .  S
C214        C656   1.560       .  S
C214       C1292   1.606       .  S
C214       C1373   1.582       .  S
C214       C1412   1.631       .  S
C215        C560   1.613       .  S
C215        C644   1.543       .  S
C215       C1133   1.635       .  S
C215       C1280   1.617       .  S
C216        C217   1.373       .  D
C216        C848   1.539       .  S
C216        C869   1.510   1_455  S
C217        C536   1.487       .  S
C217        C548   1.503   1_455  S
C218        C219   1.391       .  D
C218        C557   1.540   1_565  S
C218        C632   1.540       .  S
C219        C509   1.524       .  S
C219        C521   1.541   1_565  S
C220        C221   1.400       .  D
C220       C1532   1.545       .  S
C220       C1688   1.564       .  S
C221        C488   1.525       .  S
C221        C497   1.533       .  S
C222        C223   1.381       .  D
C222       C1568   1.541       .  S
C222       C1793   1.540       .  S
C223        C461   1.519       .  S
C223        C473   1.519       .  S
C224        C449   1.547       .  S
C224        C485   1.638       .  S
C224        C524   1.604       .  S
C224       C1316   1.612       .  S
C225        N243   1.346       .  A
C225        C262   1.466       .  S
C225        C452   1.510       .  S
N226        N243   1.314   1_455  A
N226        N248   1.308   1_455  A
N226       Co263   2.068       .  S
C227        N252   1.319       .  A
C227        C265   1.468       .  S
C227        H272   1.079       .  S
H228        C269   1.079   1_455  S
C229        N253   1.328       .  A
C229        C233   1.464       .  S
C229        H258   1.083       .  S
Co230       N248   2.029   1_565  S
Co230       N238   1.998       .  S
Co230       N270   2.031   1_565  S
Co230       N246   2.016       .  S
Co230      Cl274   2.448   1_655  S
N231        C269   1.344       .  A
N231        N238   1.312       .  A
N231       Co232   2.078   1_655  S
Co232       N235   2.073       .  S
Co232       N252   2.047   1_455  S
Co232       N239   2.059       .  S
Co232      Cl274   2.349       .  S
C233        N271   1.342       .  A
C233        C368   1.463   1_565  S
N234        N241   1.309       .  A
N234        N264   1.317       .  A
N234       Co267   2.053   1_545  S
N235        N253   1.309       .  A
N235        N271   1.316       .  A
N236        C265   1.339       .  A
N236        N246   1.311       .  A
H237        C262   1.078       .  S
N238        N259   1.301       .  A
N239        N257   1.316       .  A
N239        N244   1.312       .  A
C240        N244   1.342       .  A
C240        C268   1.471       .  S
C240        C416   1.503       .  S
N241        C256   1.316       .  A
N241       Co263   2.036       .  S
C242        N270   1.325   1_565  A
C242        C245   1.451       .  S
C242        H276   1.082       .  S
C245        N266   1.343   1_565  A
C245        C437   1.458       .  S
N246        N252   1.313       .  A
N247        C273   1.355       .  A
N247        N249   1.307       .  A
N247       Co263   2.102       .  S
N248        C262   1.328       .  A
N249        N277   1.291   1_545  A
N249       Co267   1.971   1_545  S
H250        C273   1.079       .  S
H251        C268   1.079       .  S
N253       Co267   2.024       .  S
N254        N266   1.319       .  A
N254        N270   1.310       .  A
N254       Co263   2.061   1_655  S
C255        N259   1.335       .  A
C255        C269   1.451       .  S
C255        C401   1.442   1_565  S
C256        C275   1.462       .  S
C256        H260   1.076       .  S
N257        C268   1.331       .  A
N257       Co267   2.067       .  S
C261        N277   1.329       .  A
C261        C273   1.472   1_565  S
C261        C425   1.451       .  S
Co263      Cl274   2.345   1_545  S
N264        C275   1.364       .  A
C265        C389   1.480       .  S
Co267      Cl274   2.464       .  S
C275        C380   1.488       .  S
C278        C353   1.574       .  S
C278        C440   1.561       .  S
C278        C512   1.582       .  S
C278        C545   1.583       .  S
C279        C428   1.548       .  S
C279        C464   1.614       .  S
C279        C533   1.584       .  S
C279       C1385   1.620       .  S
C280        C344   1.609       .  S
C280        C413   1.549       .  S
C280        C476   1.631       .  S
C280        C800   1.607       .  S
C281        C332   1.611       .  S
C281        C404   1.560       .  S
C281        C500   1.620       .  S
C281       C1100   1.605       .  S
C282        C293   1.600       .  S
C282        C305   1.634       .  S
C282        C317   1.621       .  S
C282        C392   1.562       .  S
C283        C284   1.399       .  D
C283        C320   1.544       .  S
C283        C356   1.553       .  S
C284       C1472   1.514       .  S
C284       C1592   1.542       .  S
C285        C377   1.566       .  S
C285       C1268   1.629       .  S
C285       C1340   1.600       .  S
C285       C1364   1.645       .  S
C286        C365   1.558       .  S
C286        C812   1.623       .  S
C286       C1085   1.605       .  S
C286       C1256   1.659       .  S
C287        C288   1.394       .  D
C287        C296   1.557   1_455  S
C287        C341   1.542       .  S
C288        C896   1.530       .  S
C288       C1004   1.541   1_455  S
C289        C290   1.413       .  D
C289        C308   1.556       .  S
C289        C329   1.525   1_565  S
C290        C572   1.547       .  S
C290        C725   1.594   1_565  S
C291        C292   1.382       .  D
C291        C860   1.537   1_556  S
C291        C992   1.529       .  S
C292        C584   1.537       .  S
C292        C620   1.529   1_556  S
C293        C294   1.427       .  A
C293        C298   1.409       .  A
C294        H299   1.082       .  S
C294        C295   1.400       .  A
C295        C296   1.414       .  A
C295        O300   1.365   1_655  S
C296        C297   1.431       .  A
C297        H301   1.080       .  S
C297        C298   1.428       .  A
C298        O302   1.370       .  S
O300        H304   0.992       .  S
O302        H303   0.992       .  S
C305        C306   1.419       .  A
C305        C310   1.438       .  A
C306        H311   1.067       .  S
C306        C307   1.415       .  A
C307        C308   1.407       .  A
C307        O312   1.369       .  S
C308        C309   1.418       .  A
C309        H313   1.081       .  S
C309        C310   1.438       .  A
C310        O314   1.370       .  S
O312        H316   0.992       .  S
O314        H315   0.992       .  S
C317        C318   1.436       .  A
C317        C322   1.442       .  A
C318        H323   1.077       .  S
C318        C319   1.419       .  A
C319        C320   1.409       .  A
C319        O324   1.374       .  S
C320        C321   1.404       .  A
C321        H325   1.083       .  S
C321        C322   1.422       .  A
C322        O326   1.364       .  S
O324        H328   0.992       .  S
O326        H327   0.992       .  S
C329        C330   1.409       .  A
C329        C334   1.416       .  A
C330        H335   1.083       .  S
C330        C331   1.417       .  A
C331        C332   1.423       .  A
C331        O336   1.370       .  S
C332        C333   1.427       .  A
C333        H337   1.077       .  S
C333        C334   1.424       .  A
C334        O338   1.373       .  S
O336        H340   0.992       .  S
O338        H339   0.992       .  S
C341        C342   1.418       .  A
C341        C346   1.413       .  A
C342        H347   1.080       .  S
C342        C343   1.423       .  A
C343        C344   1.413       .  A
C343        O348   1.372       .  S
C344        C345   1.419       .  A
C345        H349   1.072       .  S
C345        C346   1.414       .  A
C346        O350   1.377       .  S
O348        H352   0.992       .  S
O350        H351   0.992       .  S
C353        C354   1.403       .  A
C353        C358   1.414       .  A
C354        H359   1.072       .  S
C354        C355   1.418       .  A
C355        C356   1.415       .  A
C355        O360   1.364       .  S
C356        C357   1.412       .  A
C357        H361   1.051       .  S
C357        C358   1.405       .  A
C358        O362   1.372       .  S
O360        H364   0.992       .  S
O362        H363   0.992       .  S
C365        C366   1.383       .  A
C365        C370   1.451       .  A
C366        H371   1.056       .  S
C366        C367   1.395       .  A
C367        C368   1.400       .  A
C367        O372   1.364       .  S
C368        C369   1.377       .  A
C369        H373   1.082   1_545  S
C369        C370   1.398       .  A
C370        O374   1.374       .  S
O372        H376   0.991       .  S
O374        H375   0.993       .  S
C377        C378   1.418       .  A
C377        C382   1.420       .  A
C378        H383   1.079       .  S
C378        C379   1.385       .  A
C379        C380   1.416       .  A
C379        O384   1.373       .  S
C380        C381   1.398       .  A
C381        H385   1.085       .  S
C381        C382   1.382       .  A
C382        O386   1.359       .  S
O384        H388   0.989       .  S
O386        H387   0.983       .  S
C389        C390   1.380       .  A
C389        C394   1.422       .  A
C390        H395   1.081       .  S
C390        C391   1.373       .  A
C391        C392   1.442       .  A
C391        O396   1.380       .  S
C392        C393   1.409       .  A
C393        H397   1.082       .  S
C393        C394   1.404       .  A
C394        O398   1.373       .  S
O396        H400   0.992       .  S
O398        H399   0.991       .  S
C401        C402   1.401       .  A
C401        C406   1.376   1_545  A
C402        H407   1.079   1_655  S
C402        C403   1.403       .  A
C403        C404   1.427       .  A
C403        O408   1.373       .  S
C404        C405   1.417       .  A
C405        H409   1.067       .  S
C405        C406   1.387   1_545  A
C406        O410   1.361       .  S
O408        H412   0.992       .  S
O410        H411   0.991       .  S
C413        C414   1.412       .  A
C413        C418   1.407       .  A
C414        H419   1.082       .  S
C414        C415   1.390       .  A
C415        C416   1.417       .  A
C415        O420   1.372       .  S
C416        C417   1.419       .  A
C417        H421   1.084       .  S
C417        C418   1.401       .  A
C418        O422   1.374       .  S
O420        H424   0.992       .  S
O422        H423   0.992       .  S
C425        C426   1.408       .  A
C425        C430   1.405       .  A
C426        H431   1.083       .  S
C426        C427   1.411       .  A
C427        C428   1.424       .  A
C427        O432   1.369       .  S
C428        C429   1.399       .  A
C429        H433   1.080       .  S
C429        C430   1.370       .  A
C430        O434   1.367       .  S
O432        H436   0.990       .  S
O434        H435   0.994       .  S
C437        C438   1.367       .  A
C437        C442   1.407       .  A
C438        H443   1.080       .  S
C438        C439   1.384       .  A
C439        C440   1.446       .  A
C439        O444   1.365       .  S
C440        C441   1.411       .  A
C441        H445   1.080       .  S
C441        C442   1.406       .  A
C442        O446   1.367   1_655  S
O444        H448   0.993       .  S
O446        H447   0.989       .  S
C449        C450   1.407       .  A
C449        C454   1.399       .  A
C450        H455   1.083       .  S
C450        C451   1.393       .  A
C451        C452   1.426       .  A
C451        O456   1.368       .  S
C452        C453   1.421       .  A
C453        H457   1.083       .  S
C453        C454   1.396       .  A
C454        O458   1.376       .  S
O456        H460   0.988       .  S
O458        H459   0.992   1_655  S
C461        C462   1.399       .  A
C461        C466   1.406       .  A
C462        H467   1.083       .  S
C462        C463   1.414       .  A
C463        C464   1.438       .  A
C463        O468   1.371       .  S
C464        C465   1.425       .  A
C465        H469   1.063       .  S
C465        C466   1.415       .  A
C466        O470   1.374       .  S
O468        H472   0.988       .  S
O470        H471   0.992       .  S
C473        C474   1.389       .  A
C473        C478   1.404       .  A
C474        H479   1.083       .  S
C474        C475   1.414       .  A
C475        C476   1.457       .  A
C475        O480   1.368       .  S
C476        C477   1.438       .  A
C477        H481   1.071       .  S
C477        C478   1.414       .  A
C478        O482   1.375       .  S
O480        H484   0.993       .  S
O482        H483   0.991       .  S
C485        C486   1.438       .  A
C485        C490   1.459       .  A
C486        H491   1.071       .  S
C486        C487   1.418       .  A
C487        C488   1.403       .  A
C487        O492   1.372       .  S
C488        C489   1.387       .  A
C489        H493   1.083       .  S
C489        C490   1.415       .  A
C490        O494   1.370       .  S
O492        H496   0.991       .  S
O494        H495   0.993       .  S
C497        C498   1.407       .  A
C497        C502   1.411       .  A
C498        H503   1.082       .  S
C498        C499   1.431       .  A
C499        C500   1.430       .  A
C499        O504   1.378       .  S
C500        C501   1.424       .  A
C501        H505   1.075       .  S
C501        C502   1.420       .  A
C502        O506   1.372       .  S
O504        H508   0.992       .  S
O506        H507   0.992       .  S
C509        C510   1.389       .  A
C509        C514   1.425       .  A
C510        H515   1.085       .  S
C510        C511   1.392       .  A
C511        C512   1.437       .  A
C511        O516   1.363       .  S
C512        C513   1.405       .  A
C513        H517   1.077       .  S
C513        C514   1.424       .  A
C514        O518   1.372       .  S
O516        H520   0.992       .  S
O518        H519   0.992       .  S
C521        C522   1.402       .  A
C521        C526   1.421       .  A
C522        H527   1.082   1_545  S
C522        C523   1.410       .  A
C523        C524   1.432       .  A
C523        O528   1.372       .  S
C524        C525   1.419       .  A
C525        H529   1.082       .  S
C525        C526   1.424       .  A
C526        O530   1.371       .  S
O528        H532   0.992       .  S
O530        H531   0.991       .  S
C533        C534   1.412       .  A
C533        C538   1.426       .  A
C534        H539   1.062       .  S
C534        C535   1.387       .  A
C535        C536   1.395       .  A
C535        O540   1.376       .  S
C536        C537   1.408       .  A
C537        H541   1.083       .  S
C537        C538   1.421       .  A
C538        O542   1.376       .  S
O540        H544   0.992       .  S
O542        H543   0.993       .  S
C545        C546   1.414       .  A
C545        C550   1.443       .  A
C546        H551   1.067       .  S
C546        C547   1.402       .  A
C547        C548   1.406       .  A
C547        O552   1.369       .  S
C548        C549   1.390       .  A
C549        H553   1.084       .  S
C549        C550   1.403       .  A
C550        O554   1.372       .  S
O552        H556   0.992       .  S
O554        H555   0.992       .  S
C557        C558   1.395       .  A
C557        C562   1.425       .  A
C558        H563   1.083       .  S
C558        C559   1.409       .  A
C559        C560   1.447       .  A
C559        O564   1.376       .  S
C560        C561   1.405       .  A
C561        H565   1.076       .  S
C561        C562   1.429       .  A
C562        O566   1.377       .  S
O564        H568   0.993       .  S
O566        H567   0.992       .  S
C569        C570   1.436       .  A
C569        C574   1.449       .  A
C570        H575   1.070       .  S
C570        C571   1.425       .  A
C571        C572   1.407       .  A
C571        O576   1.371       .  S
C572        C573   1.404       .  A
C573        H577   1.083       .  S
C573        C574   1.434       .  A
C574        O578   1.373       .  S
O576        H580   0.992       .  S
O578        H579   0.993       .  S
C581        C582   1.432       .  A
C581        C586   1.410       .  A
C582        H587   1.082       .  S
C582        C583   1.415       .  A
C583        C584   1.409       .  A
C583        O588   1.373       .  S
C584        C585   1.418       .  A
C585        H589   1.080       .  S
C585        C586   1.414       .  A
C586        O590   1.372       .  S
O588        H592   0.989       .  S
O590        H591   0.991       .  S
C593        C594   1.429       .  A
C593        C598   1.411       .  A
C594        H599   1.079       .  S
C594        C595   1.424       .  A
C595        C596   1.415       .  A
C595        O600   1.371       .  S
C596        C597   1.413       .  A
C597        H601   1.079       .  S
C597        C598   1.413       .  A
C598        O602   1.370       .  S
O600        H604   0.992       .  S
O602        H603   0.992       .  S
C605        C606   1.427       .  A
C605        C610   1.432       .  A
C606        H611   1.077       .  S
C606        C607   1.435       .  A
C607        C608   1.421       .  A
C607        O612   1.370       .  S
C608        C609   1.399       .  A
C609        H613   1.083       .  S
C609        C610   1.426       .  A
C610        O614   1.375       .  S
O612        H616   0.991       .  S
O614        H615   0.992       .  S
C617        C618   1.434       .  A
C617        C622   1.426       .  A
C618        H623   1.072       .  S
C618        C619   1.398       .  A
C619        C620   1.396       .  A
C619        O624   1.373   1_554  S
C620        C621   1.424       .  A
C621        H625   1.083       .  S
C621        C622   1.434       .  A
C622        O626   1.375       .  S
O624        H628   0.991       .  S
O626        H627   0.992       .  S
C629        C630   1.423       .  A
C629        C634   1.435       .  A
C630        H635   1.077       .  S
C630        C631   1.429       .  A
C631        C632   1.417       .  A
C631        O636   1.371       .  S
C632        C633   1.398       .  A
C633        H637   1.084       .  S
C633        C634   1.421       .  A
C634        O638   1.374       .  S
O636        H640   0.992       .  S
O638        H639   0.993       .  S
C641        C642   1.406       .  A
C641        C646   1.382       .  A
C642        H647   1.083       .  S
C642        C643   1.403       .  A
C643        C644   1.415       .  A
C643        O648   1.372       .  S
C644        C645   1.425       .  A
C645        H649   1.081       .  S
C645        C646   1.373       .  A
C646        O650   1.376       .  S
O648        H652   0.992       .  S
O650        H651   0.989       .  S
C653        C654   1.380       .  A
C653        C658   1.400       .  A
C654        H659   1.086       .  S
C654        C655   1.385       .  A
C655        C656   1.434       .  A
C655        O660   1.371       .  S
C656        C657   1.406       .  A
C657        H661   1.064       .  S
C657        C658   1.393       .  A
C658        O662   1.373       .  S
O660        H664   0.993       .  S
O662        H663   0.991       .  S
C665        C666   1.355       .  A
C665        C670   1.417       .  A
C666        H671   1.084       .  S
C666        C667   1.387       .  A
C667        C668   1.473       .  A
C667        O672   1.366       .  S
C668        C669   1.397       .  A
C669        H673   1.069       .  S
C669        C670   1.386       .  A
C670        O674   1.357       .  S
O672        H676   0.994       .  S
O674        H675   0.990       .  S
C677        C678   1.398       .  A
C677        C682   1.367       .  A
C678        H683   1.061       .  S
C678        C679   1.376       .  A
C679        C680   1.397       .  A
C679        O684   1.364       .  S
C680        C681   1.422       .  A
C681        H685   1.046       .  S
C681        C682   1.383       .  A
C682        O686   1.365       .  S
O684        H688   0.987       .  S
O686        H687   0.992       .  S
C689        C690   1.430       .  A
C689        C694   1.451       .  A
C690        H695   1.047       .  S
C690        C691   1.396       .  A
C691        C692   1.383       .  A
C691        O696   1.368       .  S
C692        C693   1.396       .  A
C693        H697   1.084       .  S
C693        C694   1.420       .  A
C694        O698   1.371       .  S
O696        H700   0.993       .  S
O698        H699   0.992       .  S
C701        C702   1.419       .  A
C701        C706   1.428       .  A
C702        H707   1.083       .  S
C702        C703   1.372       .  A
C703        C704   1.388       .  A
C703        O708   1.373       .  S
C704        C705   1.388       .  A
C705        H709   1.085       .  S
C705        C706   1.391       .  A
C706        O710   1.369       .  S
O708        H712   0.993       .  S
O710        H711   0.993       .  S
C713        C714   1.408       .  A
C713        C718   1.418       .  A
C714        H719   1.084       .  S
C714        C715   1.411       .  A
C715        C716   1.419       .  A
C715        O720   1.377       .  S
C716        C717   1.407       .  A
C717        H721   1.081       .  S
C717        C718   1.387       .  A
C718        O722   1.372   1_554  S
O720        H724   0.992       .  S
O722        H723   0.992       .  S
C725        C726   1.427       .  A
C725        C730   1.427       .  A
C726        H731   1.058       .  S
C726        C727   1.417       .  A
C727        C728   1.408       .  A
C727        O732   1.372       .  S
C728        C729   1.429       .  A
C729        H733   1.076       .  S
C729        C730   1.436       .  A
C730        O734   1.369   1_545  S
O732        H736   0.991       .  S
O734        H735   0.990       .  S
C737        C738   1.425       .  A
C737        C742   1.431       .  A
C738        H743   1.070       .  S
C738        C739   1.394       .  A
C739        C740   1.388       .  A
C739        O744   1.374       .  S
C740        C741   1.401       .  A
C741        H745   1.084       .  S
C741        C742   1.399       .  A
C742        O746   1.371       .  S
O744        H748   0.993       .  S
O746        H747   0.992       .  S
C749        C750   1.391       .  A
C749        C754   1.413       .  A
C750        H755   1.081       .  S
C750        C751   1.419       .  A
C751        C752   1.444       .  A
C751        O756   1.356       .  S
C752        C753   1.442       .  A
C753        H757   1.081       .  S
C753        C754   1.431       .  A
C754        O758   1.370       .  S
O756        H760   0.993       .  S
O758        H759   0.991       .  S
C761        C762   1.418       .  A
C761        C766   1.448       .  A
C762        H767   1.074       .  S
C762        C763   1.421       .  A
C763        C764   1.413       .  A
C763        O768   1.373       .  S
C764        C765   1.408       .  A
C765        H769   1.083       .  S
C765        C766   1.431       .  A
C766        O770   1.372       .  S
O768        H772   0.991       .  S
O770        H771   0.991       .  S
C773        C774   1.434       .  A
C773        C778   1.412       .  A
C774        H779   1.054       .  S
C774        C775   1.426       .  A
C775        C776   1.407       .  A
C775        O780   1.370       .  S
C776        C777   1.427       .  A
C777        H781   1.084       .  S
C777        C778   1.398       .  A
C778        O782   1.367       .  S
O780        H784   0.991       .  S
O782        H783   0.992       .  S
C785        C786   1.408       .  A
C785        C790   1.413       .  A
C786        H791   1.082       .  S
C786        C787   1.432       .  A
C787        C788   1.440       .  A
C787        O792   1.375       .  S
C788        C789   1.430       .  A
C789        H793   1.066       .  S
C789        C790   1.425       .  A
C790        O794   1.374       .  S
O792        H796   0.993       .  S
O794        H795   0.992       .  S
C797        C798   1.398       .  A
C797        C802   1.421       .  A
C798        H803   1.082       .  S
C798        C799   1.403       .  A
C799        C800   1.436       .  A
C799        O804   1.375       .  S
C800        C801   1.418       .  A
C801        H805   1.082       .  S
C801        C802   1.424       .  A
C802        O806   1.371       .  S
O804        H808   0.993       .  S
O806        H807   0.991       .  S
C809        C810   1.401       .  A
C809        C814   1.407       .  A
C810        H815   1.076       .  S
C810        C811   1.411       .  A
C811        C812   1.432       .  A
C811        O816   1.359       .  S
C812        C813   1.442       .  A
C813        H817   1.082       .  S
C813        C814   1.420       .  A
C814        O818   1.372       .  S
O816        H820   0.988       .  S
O818        H819   0.992   1_545  S
C821        C822   1.413       .  A
C821        C826   1.425       .  A
C822        H827   1.070       .  S
C822        C823   1.415       .  A
C823        C824   1.406       .  A
C823        O828   1.367       .  S
C824        C825   1.429       .  A
C825        H829   1.083       .  S
C825        C826   1.435       .  A
C826        O830   1.376       .  S
O828        H832   0.992       .  S
O830        H831   0.993       .  S
C833        C834   1.405       .  A
C833        C838   1.432       .  A
C834        H839   1.065       .  S
C834        C835   1.415       .  A
C835        C836   1.437       .  A
C835        O840   1.372       .  S
C836        C837   1.410       .  A
C837        H841   1.080       .  S
C837        C838   1.432       .  A
C838        O842   1.370       .  S
O840        H844   0.992       .  S
O842        H843   0.991       .  S
C845        C846   1.428       .  A
C845        C850   1.415       .  A
C846        H851   1.083       .  S
C846        C847   1.422       .  A
C847        C848   1.411       .  A
C847        O852   1.371       .  S
C848        C849   1.408       .  A
C849        H853   1.068       .  S
C849        C850   1.410       .  A
C850        O854   1.378       .  S
O852        H856   0.991       .  S
O854        H855   0.992       .  S
C857        C858   1.419       .  A
C857        C862   1.427       .  A
C858        H863   1.082       .  S
C858        C859   1.414       .  A
C859        C860   1.403       .  A
C859        O864   1.364       .  S
C860        C861   1.412       .  A
C861        H865   1.080       .  S
C861        C862   1.414       .  A
C862        O866   1.371       .  S
O864        H868   0.992       .  S
O866        H867   0.991       .  S
C869        C870   1.410       .  A
C869        C874   1.405       .  A
C870        H875   1.083       .  S
C870        C871   1.425       .  A
C871        C872   1.415       .  A
C871        O876   1.380       .  S
C872        C873   1.426       .  A
C873        H877   1.078       .  S
C873        C874   1.412       .  A
C874        O878   1.378       .  S
O876        H880   0.992       .  S
O878        H879   0.991       .  S
C881        C882   1.425       .  A
C881        C886   1.411       .  A
C882        H887   1.072       .  S
C882        C883   1.413       .  A
C883        C884   1.411       .  A
C883        O888   1.374       .  S
C884        C885   1.416       .  A
C885        H889   1.071       .  S
C885        C886   1.410       .  A
C886        O890   1.379       .  S
O888        H892   0.992       .  S
O890        H891   0.992       .  S
C893        C894   1.434       .  A
C893        C898   1.411       .  A
C894        H899   1.080       .  S
C894        C895   1.411       .  A
C895        C896   1.408       .  A
C895        O900   1.374       .  S
C896        C897   1.415       .  A
C897        H901   1.079       .  S
C897        C898   1.427       .  A
C898        O902   1.377       .  S
O900        H904   0.992       .  S
O902        H903   0.992       .  S
C905        C906   1.397       .  A
C905        C910   1.415       .  A
C906        H911   1.041       .  S
C906        C907   1.379       .  A
C907        C908   1.368       .  A
C907        O912   1.366   1_554  S
C908        C909   1.422       .  A
C909        H913   1.081       .  S
C909        C910   1.398       .  A
C910        O914   1.370       .  S
O912        H916   0.991       .  S
O914        H915   0.989       .  S
C917        C918   1.412       .  A
C917        C922   1.408       .  A
C918        H923   1.085       .  S
C918        C919   1.394       .  A
C919        C920   1.415       .  A
C919        O924   1.370       .  S
C920        C921   1.410       .  A
C921        H925   1.071       .  S
C921        C922   1.393       .  A
C922        O926   1.371       .  S
O924        H928   0.992       .  S
O926        H927   0.992       .  S
C929        C930   1.407       .  A
C929        C934   1.404       .  A
C930        H935   1.085       .  S
C930        C931   1.410       .  A
C931        C932   1.424       .  A
C931        O936   1.378       .  S
C932        C933   1.388       .  A
C933        H937   1.078       .  S
C933        C934   1.387       .  A
C934        O938   1.376   1_655  S
O936        H940   0.992       .  S
O938        H939   0.992       .  S
C941        C942   1.420       .  A
C941        C946   1.415       .  A
C942        H947   1.080       .  S
C942        C943   1.395       .  A
C943        C944   1.404       .  A
C943        O948   1.374       .  S
C944        C945   1.409       .  A
C945        H949   1.083       .  S
C945        C946   1.392       .  A
C946        O950   1.377       .  S
O948        H952   0.993       .  S
O950        H951   0.992       .  S
C953        C954   1.440       .  A
C953        C958   1.425       .  A
C954        H959   1.073       .  S
C954        C955   1.400       .  A
C955        C956   1.391       .  A
C955        O960   1.368       .  S
C956        C957   1.397       .  A
C957        H961   1.086       .  S
C957        C958   1.387       .  A
C958        O962   1.366       .  S
O960        H964   0.992       .  S
O962        H963   0.992       .  S
C965        C966   1.413       .  A
C965        C970   1.370       .  A
C966        H971   1.083       .  S
C966        C967   1.414       .  A
C967        C968   1.419       .  A
C967        O972   1.370       .  S
C968        C969   1.436       .  A
C969        H973   1.067       .  S
C969        C970   1.383       .  A
C970        O974   1.377       .  S
O972        H976   0.992       .  S
O974        H975   0.992       .  S
C977        C978   1.408       .  A
C977        C982   1.369       .  A
C978        H983   1.082       .  S
C978        C979   1.407       .  A
C979        C980   1.412       .  A
C979        O984   1.361       .  S
C980        C981   1.437       .  A
C981        H985   1.060       .  S
C981        C982   1.375       .  A
C982        O986   1.373   1_655  S
O984        H988   0.992       .  S
O986        H987   0.991       .  S
C989        C990   1.438       .  A
C989        C994   1.427       .  A
C990        H995   1.072       .  S
C990        C991   1.404       .  A
C991        C992   1.398       .  A
C991        O996   1.373       .  S
C992        C993   1.422       .  A
C993        H997   1.083       .  S
C993        C994   1.431       .  A
C994        O998   1.370       .  S
O996       H1000   0.992       .  S
O998        H999   0.991       .  S
C1001      C1002   1.423       .  A
C1001      C1006   1.426       .  A
C1002      H1007   1.078       .  S
C1002      C1003   1.416       .  A
C1003      C1004   1.414       .  A
C1003      O1008   1.371       .  S
C1004      C1005   1.407       .  A
C1005      H1009   1.075       .  S
C1005      C1006   1.421       .  A
C1006      O1010   1.369       .  S
O1008      H1012   0.991       .  S
O1010      H1011   0.992       .  S
C1013      C1014   1.428       .  A
C1013      C1018   1.421       .  A
C1014      H1019   1.080       .  S
C1014      C1015   1.382       .  A
C1015      C1016   1.403       .  A
C1015      O1020   1.371       .  S
C1016      C1017   1.432       .  A
C1017      H1021   1.081       .  S
C1017      C1018   1.440       .  A
C1018      O1022   1.369       .  S
O1020      H1024   0.992       .  S
O1022      H1023   0.992       .  S
C1025      C1026   1.435       .  A
C1025      C1030   1.408       .  A
C1026      H1031   1.081       .  S
C1026      C1027   1.373       .  A
C1027      C1028   1.387       .  A
C1027      O1032   1.377       .  S
C1028      C1029   1.423       .  A
C1029      H1033   1.083       .  S
C1029      C1030   1.398       .  A
C1030      O1034   1.375       .  S
O1032      H1036   0.992       .  S
O1034      H1035   0.992       .  S
C1037      C1038   1.414       .  A
C1037      C1042   1.418       .  A
C1038      H1043   1.075       .  S
C1038      C1039   1.415       .  A
C1039      C1040   1.428       .  A
C1039      O1044   1.376       .  S
C1040      C1041   1.417       .  A
C1041      H1045   1.081       .  S
C1041      C1042   1.411       .  A
C1042      O1046   1.370       .  S
O1044      H1048   0.992       .  S
O1046      H1047   0.992       .  S
C1049      C1050   1.391       .  A
C1049      C1054   1.398       .  A
C1050      H1055   1.084       .  S
C1050      C1051   1.398       .  A
C1051      C1052   1.441       .  A
C1051      O1056   1.365       .  S
C1052      C1053   1.433       .  A
C1053      H1057   1.075       .  S
C1053      C1054   1.404       .  A
C1054      O1058   1.375       .  S
O1056      H1060   0.993       .  S
O1058      H1059   0.992       .  S
C1061      C1062   1.393       .  A
C1061      C1066   1.403       .  A
C1062      H1067   1.083       .  S
C1062      C1063   1.400       .  A
C1063      C1064   1.441       .  A
C1063      O1068   1.377       .  S
C1064      C1065   1.421       .  A
C1065      H1069   1.079       .  S
C1065      C1066   1.411       .  A
C1066      O1070   1.376       .  S
O1068      H1072   0.993       .  S
O1070      H1071   0.992       .  S
C1073      C1074   1.389       .  A
C1073      C1078   1.412       .  A
C1074      H1079   1.082       .  S
C1074      C1075   1.394       .  A
C1075      C1076   1.433       .  A
C1075      O1080   1.367       .  S
C1076      C1077   1.424       .  A
C1077      H1081   1.079       .  S
C1077      C1078   1.426       .  A
C1078      O1082   1.370       .  S
O1080      H1084   0.992       .  S
O1082      H1083   0.992       .  S
C1085      C1086   1.403       .  A
C1085      C1090   1.461       .  A
C1086      H1091   1.071       .  S
C1086      C1087   1.418       .  A
C1087      C1088   1.423       .  A
C1087      O1092   1.370       .  S
C1088      C1089   1.383       .  A
C1089      H1093   1.084       .  S
C1089      C1090   1.395       .  A
C1090      O1094   1.373       .  S
O1092      H1096   0.991       .  S
O1094      H1095   0.994       .  S
C1097      C1098   1.416       .  A
C1097      C1102   1.399       .  A
C1098      H1103   1.083       .  S
C1098      C1099   1.420       .  A
C1099      C1100   1.419       .  A
C1099      O1104   1.370       .  S
C1100      C1101   1.430       .  A
C1101      H1105   1.082       .  S
C1101      C1102   1.397       .  A
C1102      O1106   1.372   1_655  S
O1104      H1108   0.991       .  S
O1106      H1107   0.992   1_455  S
C1109      C1110   1.412       .  A
C1109      C1114   1.409       .  A
C1110      H1115   1.074       .  S
C1110      C1111   1.394       .  A
C1111      C1112   1.407       .  A
C1111      O1116   1.362   1_655  S
C1112      C1113   1.423       .  A
C1113      H1117   1.075       .  S
C1113      C1114   1.412       .  A
C1114      O1118   1.372       .  S
O1116      H1120   0.991       .  S
O1118      H1119   0.991       .  S
C1121      C1122   1.408       .  A
C1121      C1126   1.438       .  A
C1122      H1127   1.078       .  S
C1122      C1123   1.421       .  A
C1123      C1124   1.424       .  A
C1123      O1128   1.371       .  S
C1124      C1125   1.390       .  A
C1125      H1129   1.085       .  S
C1125      C1126   1.395       .  A
C1126      O1130   1.360       .  S
O1128      H1132   0.991       .  S
O1130      H1131   0.992       .  S
C1133      C1134   1.446       .  A
C1133      C1138   1.441       .  A
C1134      H1139   1.073       .  S
C1134      C1135   1.411       .  A
C1135      C1136   1.398       .  A
C1135      O1140   1.370       .  S
C1136      C1137   1.404       .  A
C1137      H1141   1.079       .  S
C1137      C1138   1.421       .  A
C1138      O1142   1.366       .  S
O1140      H1144   0.992       .  S
O1142      H1143   0.992       .  S
C1145      C1146   1.414       .  A
C1145      C1150   1.405       .  A
C1146      H1151   1.082       .  S
C1146      C1147   1.438       .  A
C1147      C1148   1.443       .  A
C1147      O1152   1.368       .  S
C1148      C1149   1.433       .  A
C1149      H1153   1.063       .  S
C1149      C1150   1.422       .  A
C1150      O1154   1.376       .  S
O1152      H1156   0.992       .  S
O1154      H1155   0.991       .  S
C1157      C1158   1.430       .  A
C1157      C1162   1.446       .  A
C1158      H1163   1.078       .  S
C1158      C1159   1.432       .  A
C1159      C1160   1.413       .  A
C1159      O1164   1.372       .  S
C1160      C1161   1.396       .  A
C1161      H1165   1.081       .  S
C1161      C1162   1.417       .  A
C1162      O1166   1.375       .  S
O1164      H1168   0.991       .  S
O1166      H1167   0.993       .  S
C1169      C1170   1.396       .  A
C1169      C1174   1.398       .  A
C1170      H1175   1.084       .  S
C1170      C1171   1.413       .  A
C1171      C1172   1.442       .  A
C1171      O1176   1.373       .  S
C1172      C1173   1.430       .  A
C1173      H1177   1.072       .  S
C1173      C1174   1.410       .  A
C1174      O1178   1.376       .  S
O1176      H1180   0.992       .  S
O1178      H1179   0.992       .  S
C1181      C1182   1.400       .  A
C1181      C1186   1.431       .  A
C1182      H1187   1.073       .  S
C1182      C1183   1.409       .  A
C1183      C1184   1.439       .  A
C1183      O1188   1.373       .  S
C1184      C1185   1.404       .  A
C1185      H1189   1.082       .  S
C1185      C1186   1.416       .  A
C1186      O1190   1.365       .  S
O1188      H1192   0.992       .  S
O1190      H1191   0.994       .  S
C1193      C1194   1.410       .  A
C1193      C1198   1.408       .  A
C1194      H1199   1.083       .  S
C1194      C1195   1.435       .  A
C1195      C1196   1.446       .  A
C1195      O1200   1.372       .  S
C1196      C1197   1.431       .  A
C1197      H1201   1.063       .  S
C1197      C1198   1.423       .  A
C1198      O1202   1.374       .  S
O1200      H1204   0.993       .  S
O1202      H1203   0.992       .  S
C1205      C1206   1.403       .  A
C1205      C1210   1.417       .  A
C1206      H1211   1.084       .  S
C1206      C1207   1.427       .  A
C1207      C1208   1.461       .  A
C1207      O1212   1.372       .  S
C1208      C1209   1.436       .  A
C1209      H1213   1.072       .  S
C1209      C1210   1.442       .  A
C1210      O1214   1.377       .  S
O1212      H1216   0.992       .  S
O1214      H1215   0.992       .  S
C1217      C1218   1.401       .  A
C1217      C1222   1.409       .  A
C1218      H1223   1.082       .  S
C1218      C1219   1.418       .  A
C1219      C1220   1.447       .  A
C1219      O1224   1.359       .  S
C1220      C1221   1.447       .  A
C1221      H1225   1.075       .  S
C1221      C1222   1.428       .  A
C1222      O1226   1.371       .  S
O1224      H1228   0.990       .  S
O1226      H1227   0.992       .  S
C1229      C1230   1.418       .  A
C1229      C1234   1.445       .  A
C1230      H1235   1.081       .  S
C1230      C1231   1.422       .  A
C1231      C1232   1.416       .  A
C1231      O1236   1.371       .  S
C1232      C1233   1.391       .  A
C1233      H1237   1.079       .  S
C1233      C1234   1.401       .  A
C1234      O1238   1.374       .  S
O1236      H1240   0.991       .  S
O1238      H1239   0.993       .  S
C1241      C1242   1.404       .  A
C1241      C1246   1.408       .  A
C1242      H1247   1.083       .  S
C1242      C1243   1.418       .  A
C1243      C1244   1.436       .  A
C1243      O1248   1.368       .  S
C1244      C1245   1.424       .  A
C1245      H1249   1.078       .  S
C1245      C1246   1.417       .  A
C1246      O1250   1.373       .  S
O1248      H1252   0.992       .  S
O1250      H1251   0.992       .  S
C1253      C1254   1.408       .  A
C1253      C1258   1.409       .  A
C1254      H1259   1.083       .  S
C1254      C1255   1.430       .  A
C1255      C1256   1.450       .  A
C1255      O1260   1.370       .  S
C1256      C1257   1.428       .  A
C1257      H1261   1.055       .  S
C1257      C1258   1.433       .  A
C1258      O1262   1.376       .  S
O1260      H1264   0.992       .  S
O1262      H1263   0.991       .  S
C1265      C1266   1.406       .  A
C1265      C1270   1.415       .  A
C1266      H1271   1.082       .  S
C1266      C1267   1.428       .  A
C1267      C1268   1.447       .  A
C1267      O1272   1.371       .  S
C1268      C1269   1.420       .  A
C1269      H1273   1.073       .  S
C1269      C1270   1.433       .  A
C1270      O1274   1.377       .  S
O1272      H1276   0.990       .  S
O1274      H1275   0.992       .  S
C1277      C1278   1.397       .  A
C1277      C1282   1.409       .  A
C1278      H1283   1.084       .  S
C1278      C1279   1.409       .  A
C1279      C1280   1.436       .  A
C1279      O1284   1.365       .  S
C1280      C1281   1.424       .  A
C1281      H1285   1.079       .  S
C1281      C1282   1.416       .  A
C1282      O1286   1.371       .  S
O1284      H1288   0.993       .  S
O1286      H1287   0.992       .  S
C1289      C1290   1.402       .  A
C1289      C1294   1.407       .  A
C1290      H1295   1.083       .  S
C1290      C1291   1.421       .  A
C1291      C1292   1.438       .  A
C1291      O1296   1.377       .  S
C1292      C1293   1.411       .  A
C1293      H1297   1.074       .  S
C1293      C1294   1.418       .  A
C1294      O1298   1.374       .  S
O1296      H1300   0.992       .  S
O1298      H1299   0.992       .  S
C1301      C1302   1.427       .  A
C1301      C1306   1.433       .  A
C1302      H1307   1.072       .  S
C1302      C1303   1.413       .  A
C1303      C1304   1.411       .  A
C1303      O1308   1.374       .  S
C1304      C1305   1.403       .  A
C1305      H1309   1.083       .  S
C1305      C1306   1.422       .  A
C1306      O1310   1.377       .  S
O1308      H1312   0.988       .  S
O1310      H1311   0.993       .  S
C1313      C1314   1.407       .  A
C1313      C1318   1.415       .  A
C1314      H1319   1.082       .  S
C1314      C1315   1.426       .  A
C1315      C1316   1.407       .  A
C1315      O1320   1.381       .  S
C1316      C1317   1.428       .  A
C1317      H1321   1.075       .  S
C1317      C1318   1.425       .  A
C1318      O1322   1.371       .  S
O1320      H1324   0.991       .  S
O1322      H1323   0.992       .  S
C1325      C1326   1.403       .  A
C1325      C1330   1.433       .  A
C1326      H1331   1.076       .  S
C1326      C1327   1.417       .  A
C1327      C1328   1.421       .  A
C1327      O1332   1.367       .  S
C1328      C1329   1.401       .  A
C1329      H1333   1.077   1_655  S
C1329      C1330   1.404       .  A
C1330      O1334   1.367       .  S
O1332      H1336   0.990       .  S
O1334      H1335   0.991       .  S
C1337      C1338   1.426       .  A
C1337      C1342   1.423       .  A
C1338      H1343   1.063       .  S
C1338      C1339   1.420       .  A
C1339      C1340   1.409       .  A
C1339      O1344   1.372       .  S
C1340      C1341   1.423       .  A
C1341      H1345   1.082       .  S
C1341      C1342   1.419       .  A
C1342      O1346   1.369       .  S
O1344      H1348   0.991       .  S
O1346      H1347   0.992       .  S
C1349      C1350   1.403       .  A
C1349      C1354   1.422       .  A
C1350      H1355   1.084       .  S
C1350      C1351   1.421       .  A
C1351      C1352   1.438       .  A
C1351      O1356   1.364       .  S
C1352      C1353   1.425       .  A
C1353      H1357   1.079       .  S
C1353      C1354   1.435       .  A
C1354      O1358   1.370       .  S
O1356      H1360   0.992       .  S
O1358      H1359   0.991       .  S
C1361      C1362   1.409       .  A
C1361      C1366   1.407       .  A
C1362      H1367   1.082       .  S
C1362      C1363   1.427       .  A
C1363      C1364   1.446       .  A
C1363      O1368   1.369       .  S
C1364      C1365   1.433       .  A
C1365      H1369   1.069       .  S
C1365      C1366   1.422       .  A
C1366      O1370   1.374       .  S
O1368      H1372   0.992       .  S
O1370      H1371   0.991       .  S
C1373      C1374   1.421       .  A
C1373      C1378   1.396       .  A
C1374      H1379   1.076       .  S
C1374      C1375   1.420       .  A
C1375      C1376   1.419       .  A
C1375      O1380   1.369   1_545  S
C1376      C1377   1.430       .  A
C1377      H1381   1.054       .  S
C1377      C1378   1.405       .  A
C1378      O1382   1.373       .  S
O1380      H1384   0.992       .  S
O1382      H1383   0.992       .  S
C1385      C1386   1.441       .  A
C1385      C1390   1.410       .  A
C1386      H1391   1.076       .  S
C1386      C1387   1.393       .  A
C1387      C1388   1.393       .  A
C1387      O1392   1.372       .  S
C1388      C1389   1.421       .  A
C1389      H1393   1.076       .  S
C1389      C1390   1.422       .  A
C1390      O1394   1.372       .  S
O1392      H1396   0.992       .  S
O1394      H1395   0.992       .  S
C1397      C1398   1.411       .  A
C1397      C1402   1.425       .  A
C1398      H1403   1.062       .  S
C1398      C1399   1.404       .  A
C1399      C1400   1.415       .  A
C1399      O1404   1.372       .  S
C1400      C1401   1.425       .  A
C1401      H1405   1.081       .  S
C1401      C1402   1.435       .  A
C1402      O1406   1.366       .  S
O1404      H1408   0.991       .  S
O1406      H1407   0.991       .  S
C1409      C1410   1.400       .  A
C1409      C1414   1.404       .  A
C1410      H1415   1.082       .  S
C1410      C1411   1.426       .  A
C1411      C1412   1.450       .  A
C1411      O1416   1.377       .  S
C1412      C1413   1.432       .  A
C1413      H1417   1.078       .  S
C1413      C1414   1.413       .  A
C1414      O1418   1.370       .  S
O1416      H1420   0.993       .  S
O1418      H1419   0.991       .  S
C1421      C1422   1.422       .  A
C1421      C1426   1.426       .  A
C1422      H1427   1.077       .  S
C1422      C1423   1.431       .  A
C1423      C1424   1.420       .  A
C1423      O1428   1.373       .  S
C1424      C1425   1.411       .  A
C1425      H1429   1.083       .  S
C1425      C1426   1.420       .  A
C1426      O1430   1.370       .  S
O1428      H1432   0.992       .  S
O1430      H1431   0.992       .  S
C1433      C1434   1.422       .  A
C1433      C1438   1.452       .  A
C1434      H1439   1.079       .  S
C1434      C1435   1.420       .  A
C1435      C1436   1.414       .  A
C1435      O1440   1.372       .  S
C1436      C1437   1.393       .  A
C1437      H1441   1.084       .  S
C1437      C1438   1.409       .  A
C1438      O1442   1.369       .  S
O1440      H1444   0.991       .  S
O1442      H1443   0.993       .  S
C1445      C1446   1.412       .  A
C1445      C1450   1.431       .  A
C1446      H1451   1.075       .  S
C1446      C1447   1.402       .  A
C1447      C1448   1.402       .  A
C1447      O1452   1.369       .  S
C1448      C1449   1.413       .  A
C1449      H1453   1.078       .  S
C1449      C1450   1.432       .  A
C1450      O1454   1.372       .  S
O1452      H1456   0.992       .  S
O1454      H1455   0.992       .  S
C1457      C1458   1.421       .  A
C1457      C1462   1.425       .  A
C1458      H1463   1.072       .  S
C1458      C1459   1.397       .  A
C1459      C1460   1.399       .  A
C1459      O1464   1.370       .  S
C1460      C1461   1.422       .  A
C1461      H1465   1.082       .  S
C1461      C1462   1.432       .  A
C1462      O1466   1.371       .  S
O1464      H1468   0.981       .  S
O1466      H1467   0.992       .  S
C1469      C1470   1.433       .  A
C1469      C1474   1.427       .  A
C1470      H1475   1.071       .  S
C1470      C1471   1.399       .  A
C1471      C1472   1.398       .  A
C1471      O1476   1.372       .  S
C1472      C1473   1.413       .  A
C1473      H1477   1.082       .  S
C1473      C1474   1.421       .  A
C1474      O1478   1.370       .  S
O1476      H1480   0.992       .  S
O1478      H1479   0.992       .  S
C1481      C1482   1.414       .  A
C1481      C1486   1.440       .  A
C1482      H1487   1.082       .  S
C1482      C1483   1.427       .  A
C1483      C1484   1.435       .  A
C1483      O1488   1.366       .  S
C1484      C1485   1.406       .  A
C1485      H1489   1.081       .  S
C1485      C1486   1.420       .  A
C1486      O1490   1.369       .  S
O1488      H1492   0.992       .  S
O1490      H1491   0.993       .  S
C1493      C1494   1.434       .  A
C1493      C1498   1.447       .  A
C1494      H1499   1.075       .  S
C1494      C1495   1.422       .  A
C1495      C1496   1.407       .  A
C1495      O1500   1.374       .  S
C1496      C1497   1.397       .  A
C1497      H1501   1.081       .  S
C1497      C1498   1.415       .  A
C1498      O1502   1.374       .  S
O1500      H1504   0.992       .  S
O1502      H1503   0.992       .  S
C1505      C1506   1.422       .  A
C1505      C1510   1.431       .  A
C1506      H1511   1.067       .  S
C1506      C1507   1.426       .  A
C1507      C1508   1.412       .  A
C1507      O1512   1.366       .  S
C1508      C1509   1.422       .  A
C1509      H1513   1.078       .  S
C1509      C1510   1.434       .  A
C1510      O1514   1.372       .  S
O1512      H1516   0.992       .  S
O1514      H1515   0.992       .  S
C1517      C1518   1.416       .  A
C1517      C1522   1.440       .  A
C1518      H1523   1.080       .  S
C1518      C1519   1.418       .  A
C1519      C1520   1.415       .  A
C1519      O1524   1.368       .  S
C1520      C1521   1.386       .  A
C1521      H1525   1.077       .  S
C1521      C1522   1.408       .  A
C1522      O1526   1.361       .  S
O1524      H1528   0.992       .  S
O1526      H1527   0.993       .  S
C1529      C1530   1.421       .  A
C1529      C1534   1.454       .  A
C1530      H1535   1.078       .  S
C1530      C1531   1.426       .  A
C1531      C1532   1.418       .  A
C1531      O1536   1.369       .  S
C1532      C1533   1.395       .  A
C1533      H1537   1.084       .  S
C1533      C1534   1.417       .  A
C1534      O1538   1.371       .  S
O1536      H1540   0.991       .  S
O1538      H1539   0.992       .  S
C1541      C1542   1.435       .  A
C1541      C1546   1.409       .  A
C1542      H1547   1.072       .  S
C1542      C1543   1.430       .  A
C1543      C1544   1.411       .  A
C1543      O1548   1.370       .  S
C1544      C1545   1.428       .  A
C1545      H1549   1.078       .  S
C1545      C1546   1.393       .  A
C1546      O1550   1.373       .  S
O1548      H1552   0.992       .  S
O1550      H1551   0.992       .  S
C1553      C1554   1.434       .  A
C1553      C1558   1.448       .  A
C1554      H1559   1.076       .  S
C1554      C1555   1.425       .  A
C1555      C1556   1.408       .  A
C1555      O1560   1.372       .  S
C1556      C1557   1.412       .  A
C1557      H1561   1.083       .  S
C1557      C1558   1.443       .  A
C1558      O1562   1.368       .  S
O1560      H1564   0.991       .  S
O1562      H1563   0.992       .  S
C1565      C1566   1.431       .  A
C1565      C1570   1.427       .  A
C1566      H1571   1.080       .  S
C1566      C1567   1.412       .  A
C1567      C1568   1.400       .  A
C1567      O1572   1.365       .  S
C1568      C1569   1.421       .  A
C1569      H1573   1.081       .  S
C1569      C1570   1.429       .  A
C1570      O1574   1.369       .  S
O1572      H1576   0.991       .  S
O1574      H1575   0.991       .  S
C1577      C1578   1.425       .  A
C1577      C1582   1.447       .  A
C1578      H1583   1.080       .  S
C1578      C1579   1.435       .  A
C1579      C1580   1.418       .  A
C1579      O1584   1.372       .  S
C1580      C1581   1.408       .  A
C1581      H1585   1.083       .  S
C1581      C1582   1.423       .  A
C1582      O1586   1.375       .  S
O1584      H1588   0.992       .  S
O1586      H1587   0.992       .  S
C1589      C1590   1.434       .  A
C1589      C1594   1.439       .  A
C1590      H1595   1.074       .  S
C1590      C1591   1.427       .  A
C1591      C1592   1.412       .  A
C1591      O1596   1.371       .  S
C1592      C1593   1.406       .  A
C1593      H1597   1.084       .  S
C1593      C1594   1.421       .  A
C1594      O1598   1.372       .  S
O1596      H1600   0.992       .  S
O1598      H1599   0.992       .  S
C1601      C1602   1.422       .  A
C1601      C1606   1.408       .  A
C1602      H1607   1.059       .  S
C1602      C1603   1.409       .  A
C1603      C1604   1.417       .  A
C1603      O1608   1.371       .  S
C1604      C1605   1.448       .  A
C1605      H1609   1.063       .  S
C1605      C1606   1.438       .  A
C1606      O1610   1.371       .  S
O1608      H1612   0.992       .  S
O1610      H1611   0.992       .  S
C1613      C1614   1.445       .  A
C1613      C1618   1.433       .  A
C1614      H1619   1.067       .  S
C1614      C1615   1.406       .  A
C1615      C1616   1.392       .  A
C1615      O1620   1.371       .  S
C1616      C1617   1.414       .  A
C1617      H1621   1.078       .  S
C1617      C1618   1.427       .  A
C1618      O1622   1.366       .  S
O1620      H1624   0.991       .  S
O1622      H1623   0.992       .  S
C1625      C1626   1.404       .  A
C1625      C1630   1.433       .  A
C1626      H1631   1.083       .  S
C1626      C1627   1.424       .  A
C1627      C1628   1.437       .  A
C1627      O1632   1.367       .  S
C1628      C1629   1.412       .  A
C1629      H1633   1.081       .  S
C1629      C1630   1.431       .  A
C1630      O1634   1.369       .  S
O1632      H1636   0.992       .  S
O1634      H1635   0.991       .  S
C1637      C1638   1.417       .  A
C1637      C1642   1.433       .  A
C1638      H1643   1.078       .  S
C1638      C1639   1.423       .  A
C1639      C1640   1.415       .  A
C1639      O1644   1.371       .  S
C1640      C1641   1.419       .  A
C1641      H1645   1.083       .  S
C1641      C1642   1.432       .  A
C1642      O1646   1.369       .  S
O1644      H1648   0.992       .  S
O1646      H1647   0.991       .  S
C1649      C1650   1.434       .  A
C1649      C1654   1.440       .  A
C1650      H1655   1.075       .  S
C1650      C1651   1.411       .  A
C1651      C1652   1.399       .  A
C1651      O1656   1.372       .  S
C1652      C1653   1.403       .  A
C1653      H1657   1.080       .  S
C1653      C1654   1.415       .  A
C1654      O1658   1.368       .  S
O1656      H1660   0.992       .  S
O1658      H1659   0.992       .  S
C1661      C1662   1.439       .  A
C1661      C1666   1.472       .  A
C1662      H1667   1.072       .  S
C1662      C1663   1.434       .  A
C1663      C1664   1.415       .  A
C1663      O1668   1.371       .  S
C1664      C1665   1.378       .  A
C1665      H1669   1.086       .  S
C1665      C1666   1.405       .  A
C1666      O1670   1.366       .  S
O1668      H1672   0.991       .  S
O1670      H1671   0.994       .  S
C1673      C1674   1.402       .  A
C1673      C1678   1.440       .  A
C1674      H1679   1.078       .  S
C1674      C1675   1.419       .  A
C1675      C1676   1.412       .  A
C1675      O1680   1.368       .  S
C1676      C1677   1.408       .  A
C1677      H1681   1.083       .  S
C1677      C1678   1.427       .  A
C1678      O1682   1.368       .  S
O1680      H1684   0.992       .  S
O1682      H1683   0.992       .  S
C1685      C1686   1.412       .  A
C1685      C1690   1.440       .  A
C1686      H1691   1.081       .  S
C1686      C1687   1.438       .  A
C1687      C1688   1.431       .  A
C1687      O1692   1.365       .  S
C1688      C1689   1.402       .  A
C1689      H1693   1.080       .  S
C1689      C1690   1.415       .  A
C1690      O1694   1.371       .  S
O1692      H1696   0.991       .  S
O1694      H1695   0.985       .  S
C1697      C1698   1.408       .  A
C1697      C1702   1.385       .  A
C1698      H1703   1.084       .  S
C1698      C1699   1.412       .  A
C1699      C1700   1.434       .  A
C1699      O1704   1.369       .  S
C1700      C1701   1.432       .  A
C1701      H1705   1.078       .  S
C1701      C1702   1.385       .  A
C1702      O1706   1.370       .  S
O1704      H1708   0.992       .  S
O1706      H1707   0.993       .  S
C1709      C1710   1.407       .  A
C1709      C1714   1.396       .  A
C1710      H1715   1.084       .  S
C1710      C1711   1.418       .  A
C1711      C1712   1.427       .  A
C1711      O1716   1.373       .  S
C1712      C1713   1.430       .  A
C1713      H1717   1.081       .  S
C1713      C1714   1.403       .  A
C1714      O1718   1.373       .  S
O1716      H1720   0.990       .  S
O1718      H1719   0.992       .  S
C1721      C1722   1.408       .  A
C1721      C1726   1.439       .  A
C1722      H1727   1.081       .  S
C1722      C1723   1.392       .  A
C1723      C1724   1.403       .  A
C1723      O1728   1.370       .  S
C1724      C1725   1.368       .  A
C1725      H1729   1.086       .  S
C1725      C1726   1.367       .  A
C1726      O1730   1.375       .  S
O1728      H1732   0.991       .  S
O1730      H1731   0.993       .  S
C1733      C1734   1.437       .  A
C1733      C1738   1.463       .  A
C1734      H1739   1.062       .  S
C1734      C1735   1.393       .  A
C1735      C1736   1.363       .  A
C1735      O1740   1.360       .  S
C1736      C1737   1.382       .  A
C1737      H1741   1.082       .  S
C1737      C1738   1.407       .  A
C1738      O1742   1.367       .  S
O1740      H1744   0.991       .  S
O1742      H1743   0.992       .  S
C1745      C1746   1.406       .  A
C1745      C1750   1.387       .  A
C1746      H1751   1.082       .  S
C1746      C1747   1.412       .  A
C1747      C1748   1.420       .  A
C1747      O1752   1.368       .  S
C1748      C1749   1.432       .  A
C1749      H1753   1.082       .  S
C1749      C1750   1.384       .  A
C1750      O1754   1.375       .  S
O1752      H1756   0.992       .  S
O1754      H1755   0.992       .  S
C1757      C1758   1.411       .  A
C1757      C1762   1.395       .  A
C1758      H1763   1.085       .  S
C1758      C1759   1.399       .  A
C1759      C1760   1.413       .  A
C1759      O1764   1.372       .  S
C1760      C1761   1.426       .  A
C1761      H1765   1.079       .  S
C1761      C1762   1.398       .  A
C1762      O1766   1.373       .  S
O1764      H1768   0.992       .  S
O1766      H1767   0.992       .  S
C1769      C1770   1.409       .  A
C1769      C1774   1.437       .  A
C1770      H1775   1.079       .  S
C1770      C1771   1.393       .  A
C1771      C1772   1.403       .  A
C1771      O1776   1.373       .  S
C1772      C1773   1.387       .  A
C1773      H1777   1.086       .  S
C1773      C1774   1.383       .  A
C1774      O1778   1.372       .  S
O1776      H1780   0.991       .  S
O1778      H1779   0.992       .  S
C1781      C1782   1.402       .  A
C1781      C1786   1.437       .  A
C1782      H1787   1.063       .  S
C1782      C1783   1.417       .  A
C1783      C1784   1.414       .  A
C1783      O1788   1.379       .  S
C1784      C1785   1.392       .  A
C1785      H1789   1.077       .  S
C1785      C1786   1.401       .  A
C1786      O1790   1.371       .  S
O1788      H1792   0.992       .  S
O1790      H1791   0.992       .  S
C1793      C1794   1.411       .  A
C1793      C1798   1.409       .  A
C1794      H1799   1.079       .  S
C1794      C1795   1.427       .  A
C1795      C1796   1.423       .  A
C1795      O1800   1.373       .  S
C1796      C1797   1.429       .  A
C1797      H1801   1.075       .  S
C1797      C1798   1.423       .  A
C1798      O1802   1.372       .  S
O1800      H1804   0.992       .  S
O1802      H1803   0.991       .  S
C1805      C1806   1.414       .  A
C1805      C1810   1.433       .  A
C1806      H1811   1.079       .  S
C1806      C1807   1.405       .  A
C1807      C1808   1.415       .  A
C1807      O1812   1.367       .  S
C1808      C1809   1.404       .  A
C1809      H1813   1.083       .  S
C1809      C1810   1.408       .  A
C1810      O1814   1.372       .  S
O1812      H1816   0.992       .  S
O1814      H1815   0.992       .  S
C1817      C1818   1.403       .  A
C1817      C1822   1.438       .  A
C1818      H1823   1.071       .  S
C1818      C1819   1.400       .  A
C1819      C1820   1.412       .  A
C1819      O1824   1.379       .  S
C1820      C1821   1.362       .  A
C1821      H1825   1.088       .  S
C1821      C1822   1.362       .  A
C1822      O1826   1.370       .  S
O1824      H1828   0.992       .  S
O1826      H1827   0.993       .  S
