geometry optimzed in LAMMPS
_audit_creation_date              2020-12-01 
_audit_creation_method            'lammps2cif' 
_symmetry_space_group_name_H-M    'P1' 
_symmetry_Int_Tables_number       1 
_symmetry_cell_setting            triclinic 
loop_ 
_symmetry_equiv_pos_as_xyz 
  x,y,z 
_cell_length_a                    31.60569871 
_cell_length_b                    27.287485718037225 
_cell_length_c                    26.577804399740764 
_cell_angle_alpha                 91.28773135182719 
_cell_angle_beta                  89.49541930455509 
_cell_angle_gamma                 89.16761669523595 
loop_ 
_atom_site_label 
_atom_site_type_symbol 
_atom_site_fract_x 
_atom_site_fract_y 
_atom_site_fract_z 
_atom_site_charge 
N1          N  0.45272598  0.44409466  0.09681793    -0.06700
N2          N  0.42108635  0.43678926  0.12892171    -0.58800
N3          N  0.05604605  0.41256552  0.06565888    -0.06400
N4          N  0.08828317  0.38306831  0.07577752    -0.60900
N5          N  0.05341333  0.44884976  0.09909507    -0.06000
N6          N  0.08370191  0.44428460  0.13288117    -0.58800
N7          N  0.45587273  0.40720333  0.06396469    -0.05600
N8          N  0.42673613  0.37408023  0.07373136    -0.61300
C9          C  0.40457042  0.39322683  0.11380930     0.95500
C10         C  0.10542518  0.40314949  0.11777713     0.95300
N11         N  0.06029003  0.43627506  0.41146235    -0.06900
N12         N  0.09571147  0.43304986  0.38457265    -0.59400
N13         N  0.45982062  0.39820638  0.44288656    -0.05000
N14         N  0.43005522  0.36532635  0.43511706    -0.60600
N15         N  0.45999846  0.42951852  0.40599942    -0.06900
N16         N  0.43039695  0.41887213  0.37289916    -0.59700
N17         N  0.06126831  0.40488428  0.44837479    -0.04600
N18         N  0.09757013  0.37995729  0.44708960    -0.60700
Mn19       Mn  0.00893321  0.40265303  0.50552918     1.18400
C20         C  0.11909460  0.39799872  0.40720918     0.97600
C21         C  0.41168399  0.37878623  0.39132581     0.98200
N22         N  0.04713596  0.06629574  0.09022978    -0.06900
N23         N  0.07786987  0.07956916  0.12120116    -0.63200
N24         N  0.44719485  0.08680949  0.04962766    -0.05700
N25         N  0.41437831  0.11692829  0.05306568    -0.63900
N26         N  0.44806649  0.05681793  0.08757710    -0.06400
N27         N  0.41537093  0.06610252  0.11780513    -0.63500
N28         N  0.04503578  0.09689233  0.05262105    -0.05300
N29         N  0.07432758  0.13093181  0.05701667    -0.64200
Mn30       Mn  0.00054554  0.00470983  0.09563140     1.10700
C31         C  0.09507547  0.11950474  0.09958063     0.98800
C32         C  0.39468414  0.10381874  0.09567095     0.98900
N33         N  0.45196914  0.04323100  0.40013357    -0.06400
N34         N  0.42178105  0.04664133  0.36615825    -0.61800
N35         N  0.04426826  0.08816276  0.43562946    -0.05800
N36         N  0.07047386  0.12365637  0.42582347    -0.58500
N37         N  0.04822756  0.05223989  0.40225197    -0.07100
N38         N  0.07738411  0.06279650  0.36860120    -0.61400
N39         N  0.44839881  0.07926968  0.43378155    -0.06100
N40         N  0.41553543  0.10775536  0.42342658    -0.58600
Mn41       Mn  0.50471098  0.49011625  0.40316959     1.20200
Mn42       Mn  0.49625065  0.08715577  0.99250987     1.10100
Cl43       Cl  0.00217433  0.99727105  0.99945090    -0.86500
C44         C  0.39897261  0.08670396  0.38151740     0.95800
C45         C  0.09096536  0.10757672  0.38394368     0.95600
C46         C  0.22132124  0.21780850  0.27776813    -0.03100
C47         C  0.23056118  0.27484866  0.28814621    -0.03100
C48         C  0.23049821  0.28291204  0.22921701    -0.03100
C49         C  0.22220856  0.22693301  0.21963458    -0.03100
C50         C  0.27099361  0.20697526  0.27755229    -0.03100
C51         C  0.27155255  0.21557337  0.21865728    -0.03100
C52         C  0.28012445  0.27249085  0.22793074    -0.03100
C53         C  0.27940392  0.26391037  0.28656327    -0.03100
C54         C  0.15691840  0.21161370  0.33505419    -0.20900
C55         C  0.18367278  0.18788321  0.29956599    -0.07400
C56         C  0.17116663  0.13901204  0.28512580     0.13400
C57         C  0.14234411  0.11408310  0.31506032    -0.20900
C58         C  0.12149141  0.13685756  0.35565378    -0.07400
C59         C  0.12742823  0.18739939  0.36450328     0.13400
C60         C  0.10232569  0.21698553  0.40342397    -0.24300
H61         H  0.15640384  0.25105678  0.33758494     0.14700
H62         H  0.13534461  0.07615878  0.30548107     0.14700
C63         C  0.18347069  0.11008585  0.23855961    -0.24200
H64         H  0.11038934  0.25646838  0.40328951     0.04900
H65         H  0.10932663  0.20361278  0.44163216     0.08200
H66         H  0.06798789  0.21437087  0.39560537     0.08200
H67         H  0.19802129  0.07445112  0.24893187     0.08200
H68         H  0.20489649  0.12896310  0.21402525     0.08200
H69         H  0.15472596  0.10194220  0.21631125     0.04900
C70         C  0.16675367  0.34376114  0.22365673    -0.20900
C71         C  0.20085826  0.31881777  0.19890859    -0.07400
C72         C  0.20213295  0.32338829  0.14533685     0.13400
C73         C  0.17254006  0.35363903  0.12065769    -0.20900
C74         C  0.13976785  0.37864702  0.14674594    -0.07400
C75         C  0.13716887  0.37368546  0.19922734     0.13100
C76         C  0.10106855  0.39636023  0.22965253    -0.24300
H77         H  0.15936345  0.33619858  0.26181488     0.14700
H78         H  0.17403849  0.35601232  0.08000933     0.14700
C79         C  0.23229393  0.29515109  0.11164880    -0.24200
H80         H  0.10235318  0.38632627  0.26987800     0.04900
H81         H  0.07040555  0.38347352  0.21461802     0.08200
H82         H  0.10234184  0.43691721  0.22809043     0.08200
H83         H  0.25044040  0.26856936  0.13287928     0.08200
H84         H  0.25410922  0.32046661  0.09263986     0.08200
H85         H  0.21451713  0.27419441  0.08268242     0.04900
C86         C  0.33315124  0.10552711  0.15255336    -0.20900
C87         C  0.35779356  0.13035083  0.11829977    -0.07400
C88         C  0.34823895  0.18008271  0.10948876     0.13400
C89         C  0.31802544  0.20460917  0.14009633    -0.20900
C90         C  0.29654656  0.18195561  0.17986610    -0.07400
C91         C  0.30276084  0.12967234  0.18304510     0.13400
C92         C  0.28177365  0.09603184  0.21900229    -0.24300
H93         H  0.33903443  0.06654715  0.15725005     0.14700
H94         H  0.31294032  0.24278966  0.13306286     0.14700
C95         C  0.37058986  0.20857464  0.06940813    -0.24200
H96         H  0.30595983  0.07552056  0.24057002     0.04900
H97         H  0.26254957  0.06901899  0.19768402     0.08200
H98         H  0.26211137  0.11531135  0.24663139     0.08200
H99         H  0.36497142  0.19135557  0.03185901     0.08200
H100        H  0.40502270  0.20962171  0.07711009     0.08200
H101        H  0.35894423  0.24714025  0.06805349     0.04900
C102        C  0.19920222  0.18138183  0.13738670    -0.20900
C103        C  0.18714215  0.20809938  0.18179059    -0.07400
C104        C  0.14233196  0.21144611  0.19157432     0.13400
C105        C  0.11380814  0.18283797  0.16354840    -0.20900
C106        C  0.12714123  0.15184992  0.12409846    -0.07400
C107        C  0.16999562  0.15336380  0.10886032     0.13400
C108        C  0.18509507  0.12444849  0.06314453    -0.24300
H109        H  0.23177115  0.18046677  0.12549610     0.14700
H110        H  0.08039658  0.18404838  0.17341027     0.14700
C111        C  0.12174858  0.24311494  0.23156279    -0.24200
H112        H  0.21949027  0.12913098  0.05618694     0.04900
H113        H  0.16778141  0.13697106  0.02948377     0.08200
H114        H  0.17918929  0.08486984  0.06837122     0.08200
H115        H  0.14511769  0.26107245  0.25490649     0.08200
H116        H  0.10163724  0.22062890  0.25627222     0.08200
H117        H  0.10137274  0.27135585  0.21402068     0.04900
C118        C  0.31683239  0.34332986  0.30898583    -0.20900
C119        C  0.31020136  0.29399685  0.32160062    -0.07400
C120        C  0.33513517  0.27632088  0.36246755     0.13400
C121        C  0.36831960  0.30437163  0.38211698    -0.20900
C122        C  0.37647355  0.35166179  0.36628565    -0.07400
C123        C  0.34987552  0.37167913  0.32913421     0.13400
C124        C  0.35592125  0.42263361  0.30978530    -0.24300
H125        H  0.29683621  0.35981029  0.28122792     0.14700
H126        H  0.38743489  0.28928079  0.41191453     0.14700
C127        C  0.32677975  0.23176865  0.39218863    -0.24200
H128        H  0.33162326  0.43251656  0.28165253     0.04900
H129        H  0.38727336  0.42496483  0.29092263     0.08200
H130        H  0.35354861  0.44988098  0.34137203     0.08200
H131        H  0.35332735  0.20514505  0.38727334     0.08200
H132        H  0.29692202  0.21559454  0.38277421     0.08200
H133        H  0.32405135  0.24182927  0.43285145     0.04900
C134        C  0.32314665  0.10860472  0.36790983    -0.20900
C135        C  0.36514217  0.10995755  0.35156948    -0.07400
C136        C  0.37453780  0.13502703  0.30755367     0.13400
C137        C  0.34262924  0.16252782  0.28430322    -0.20900
C138        C  0.30076240  0.16721351  0.30296148    -0.07400
C139        C  0.29045184  0.13429122  0.34298882     0.13400
C140        C  0.24652947  0.12320218  0.36027287    -0.24300
H141        H  0.31591001  0.08663786  0.40027925     0.14700
H142        H  0.35025078  0.17763327  0.24939800     0.14700
C143        C  0.41857468  0.13358247  0.28528245    -0.24200
H144        H  0.24619431  0.09969685  0.39384912     0.04900
H145        H  0.23123320  0.10146021  0.33041431     0.08200
H146        H  0.22861531  0.15634786  0.37144576     0.08200
H147        H  0.42770470  0.09518138  0.27503648     0.08200
H148        H  0.44134317  0.14847102  0.31308330     0.08200
H149        H  0.42085565  0.15556742  0.25077541     0.04900
C150        C  0.17591416  0.33338509  0.40768719    -0.20900
C151        C  0.15999580  0.37647571  0.38679593    -0.07400
C152        C  0.18250332  0.39498423  0.34501317     0.13400
C153        C  0.21163785  0.36375603  0.31853284    -0.20900
C154        C  0.21518803  0.31355595  0.32984107    -0.07400
C155        C  0.20476185  0.30282218  0.38073489     0.13400
C156        C  0.22005329  0.25808950  0.40644366    -0.24300
H157        H  0.16360450  0.32144837  0.44351159     0.14700
H158        H  0.22644409  0.37687207  0.28468625     0.14700
C159        C  0.17593952  0.44667773  0.32757686    -0.24200
H160        H  0.24347183  0.26829199  0.43555929     0.04900
H161        H  0.23422142  0.23322321  0.37835518     0.08200
H162        H  0.19355635  0.23882034  0.42473732     0.08200
H163        H  0.18092361  0.47289657  0.35945569     0.08200
H164        H  0.14367733  0.45183667  0.31253190     0.08200
H165        H  0.19856650  0.45565898  0.29704154     0.04900
C166        C  0.38549755  0.32238001  0.16610013    -0.20900
C167        C  0.37214369  0.36530561  0.14322898    -0.07400
C168        C  0.32976820  0.38113967  0.15221405     0.13400
C169        C  0.30159396  0.35137276  0.17985365    -0.20900
C170        C  0.31418034  0.30638800  0.20139172    -0.07400
C171        C  0.35875570  0.29579868  0.19800670     0.13400
C172        C  0.38146374  0.26037788  0.23029747    -0.24300
H173        H  0.41853937  0.31144113  0.16224469     0.14700
H174        H  0.26987789  0.36511482  0.18609361     0.14700
C175        C  0.31293205  0.42895851  0.13283246    -0.24200
H176        H  0.41004924  0.27763562  0.24654837     0.04900
H177        H  0.39176529  0.22786031  0.20730296     0.08200
H178        H  0.36223967  0.25136784  0.26293784     0.08200
H179        H  0.33684561  0.44912463  0.11104376     0.08200
H180        H  0.30225309  0.45279719  0.16505034     0.08200
H181        H  0.28556044  0.42185975  0.10793257     0.04900
N182        N  0.45350865  0.44445704  0.59727124    -0.06700
N183        N  0.42197647  0.43803201  0.62977775    -0.58800
N184        N  0.05576473  0.41234325  0.56598358    -0.06400
N185        N  0.08767400  0.38265626  0.57666067    -0.60900
N186        N  0.05340243  0.44917011  0.59877863    -0.06000
N187        N  0.08349956  0.44477816  0.63279958    -0.58800
N188        N  0.45551017  0.40755597  0.56429077    -0.05600
N189        N  0.42574390  0.37531219  0.57443749    -0.61300
C190        C  0.40436022  0.39502139  0.61483265     0.95500
C191        C  0.10484104  0.40320636  0.61834965     0.95300
N192        N  0.05977206  0.43820342  0.91088803    -0.06900
N193        N  0.09515340  0.43550218  0.88386093    -0.59400
N194        N  0.46100068  0.39904200  0.94301197    -0.05000
N195        N  0.43090307  0.36644820  0.93578984    -0.60600
N196        N  0.46084375  0.43052443  0.90625046    -0.06900
N197        N  0.43069381  0.42017747  0.87373697    -0.59700
N198        N  0.06101737  0.40660962  0.94758324    -0.04600
N199        N  0.09746342  0.38200010  0.94597532    -0.60700
Mn200      Mn  0.00892100  0.40380965  0.00508163     1.18400
C201        C  0.11877953  0.40046818  0.90614538     0.97600
C202        C  0.41197510  0.38017362  0.89244326     0.98200
N203        N  0.04715129  0.06755083  0.58970181    -0.06900
N204        N  0.07773954  0.08138128  0.62066778    -0.63200
N205        N  0.44916260  0.09023960  0.55122969    -0.05700
N206        N  0.41712232  0.12137016  0.55541521    -0.63900
N207        N  0.45006219  0.06022281  0.58914556    -0.06400
N208        N  0.41808492  0.07051370  0.62017160    -0.63500
N209        N  0.04468853  0.09804808  0.55203403    -0.05300
N210        N  0.07360890  0.13258972  0.55643119    -0.64200
Mn211      Mn  0.00099313  0.00537477  0.59533253     1.10700
C212        C  0.09452680  0.12158760  0.59907086     0.98800
C213        C  0.39790920  0.10885901  0.59846993     0.98900
N214        N  0.45263516  0.04126103  0.89811016    -0.06400
N215        N  0.42324493  0.04538037  0.86314596    -0.61800
N216        N  0.04432387  0.08877491  0.93614181    -0.05800
N217        N  0.07031333  0.12452172  0.92633295    -0.58500
N218        N  0.04800609  0.05318228  0.90234590    -0.07100
N219        N  0.07678474  0.06425003  0.86838574    -0.61400
N220        N  0.44865987  0.07711981  0.93190937    -0.06100
N221        N  0.41628962  0.10606089  0.92077812    -0.58600
Mn222      Mn  0.50536503  0.49159031  0.90361151     1.20200
Mn223      Mn  0.49700577  0.08954827  0.49305161     1.10100
Cl224      Cl  0.00233218  0.99723524  0.49920852    -0.86500
C225        C  0.40049114  0.08569988  0.87809982     0.95800
C226        C  0.09041165  0.10896967  0.88399862     0.95600
C227        C  0.22167539  0.21926097  0.77849694    -0.03100
C228        C  0.23065418  0.27644613  0.78884068    -0.03100
C229        C  0.23031229  0.28449678  0.72999430    -0.03100
C230        C  0.22219546  0.22849859  0.72031459    -0.03100
C231        C  0.27151426  0.20870967  0.77781550    -0.03100
C232        C  0.27165406  0.21769683  0.71892637    -0.03100
C233        C  0.27997343  0.27460629  0.72864026    -0.03100
C234        C  0.27953980  0.26572139  0.78716449    -0.03100
C235        C  0.15754558  0.21299433  0.83653457    -0.20900
C236        C  0.18429399  0.18920284  0.80090931    -0.07400
C237        C  0.17180192  0.14032501  0.78651484     0.13400
C238        C  0.14301896  0.11530654  0.81640842    -0.20900
C239        C  0.12128112  0.13829726  0.85616680    -0.07400
C240        C  0.12692407  0.18895689  0.86470638     0.13400
C241        C  0.09985414  0.21903363  0.90129949    -0.24300
H242        H  0.15740855  0.25200365  0.83940217     0.14700
H243        H  0.13635721  0.07727699  0.80705044     0.14700
C244        C  0.18382300  0.11161157  0.73978990    -0.24200
H245        H  0.10743406  0.25864331  0.90058344     0.04900
H246        H  0.10527982  0.20681463  0.94028236     0.08200
H247        H  0.06595795  0.21545491  0.89143201     0.08200
H248        H  0.19890115  0.07618925  0.74988866     0.08200
H249        H  0.20456087  0.13090305  0.71487389     0.08200
H250        H  0.15490944  0.10317080  0.71796010     0.04900
C251        C  0.16555508  0.34376514  0.72430578    -0.20900
C252        C  0.20034869  0.31994598  0.69975852    -0.07400
C253        C  0.20189955  0.32475745  0.64625120     0.13400
C254        C  0.17216964  0.35469038  0.62154563    -0.20900
C255        C  0.13895713  0.37890534  0.64750965    -0.07400
C256        C  0.13572469  0.37322023  0.69980718     0.13100
C257        C  0.09879653  0.39463220  0.72976377    -0.24300
H258        H  0.15811726  0.33595849  0.76253530     0.14700
H259        H  0.17392117  0.35742006  0.58090771     0.14700
C260        C  0.23244335  0.29701131  0.61260486    -0.24200
H261        H  0.09979570  0.38425977  0.76991975     0.04900
H262        H  0.06861939  0.38106583  0.71398124     0.08200
H263        H  0.09923415  0.43524276  0.72861399     0.08200
H264        H  0.25072822  0.27050321  0.63369060     0.08200
H265        H  0.25409098  0.32270461  0.59383798     0.08200
H266        H  0.21493555  0.27601091  0.58340527     0.04900
C267        C  0.33447949  0.10926689  0.65208603    -0.20900
C268        C  0.36074502  0.13513349  0.62050627    -0.07400
C269        C  0.35178058  0.18517474  0.61276244     0.13400
C270        C  0.31961363  0.20859777  0.64134394    -0.20900
C271        C  0.29695896  0.18499302  0.67960057    -0.07400
C272        C  0.30307875  0.13265658  0.68168984     0.13400
C273        C  0.28136116  0.09839399  0.71631465    -0.24300
H274        H  0.34003828  0.07013702  0.65575327     0.14700
H275        H  0.31409152  0.24655497  0.63421882     0.14700
C276        C  0.37696325  0.21518525  0.57639160    -0.24200
H277        H  0.30504994  0.07630356  0.73702270     0.04900
H278        H  0.26142817  0.07285781  0.69405190     0.08200
H279        H  0.26260056  0.11742805  0.74502511     0.08200
H280        H  0.37339812  0.20014663  0.53753359     0.08200
H281        H  0.41084689  0.21485063  0.58706417     0.08200
H282        H  0.36609793  0.25409229  0.57630172     0.04900
C283        C  0.19899014  0.18333741  0.63774656    -0.20900
C284        C  0.18695332  0.20962741  0.68241592    -0.07400
C285        C  0.14208974  0.21255266  0.69221355     0.13400
C286        C  0.11354869  0.18449814  0.66348309    -0.20900
C287        C  0.12679077  0.15409670  0.62345966    -0.07400
C288        C  0.16986047  0.15575704  0.60860213     0.13400
C289        C  0.18646786  0.12785569  0.56292856    -0.24300
H290        H  0.23158717  0.18236791  0.62588205     0.14700
H291        H  0.08015652  0.18551848  0.67339435     0.14700
C292        C  0.12139527  0.24296970  0.73310251    -0.24200
H293        H  0.20080823  0.15383933  0.53634695     0.04900
H294        H  0.16140508  0.10760800  0.54267962     0.08200
H295        H  0.21108736  0.10103514  0.57446486     0.08200
H296        H  0.14471119  0.26093820  0.75650151     0.08200
H297        H  0.10185162  0.21952467  0.75748420     0.08200
H298        H  0.10044385  0.27120759  0.71648720     0.04900
C299        C  0.31632596  0.34541438  0.81094172    -0.20900
C300        C  0.31019938  0.29573131  0.82258012    -0.07400
C301        C  0.33533444  0.27767620  0.86310936     0.13400
C302        C  0.36844503  0.30570544  0.88307316    -0.20900
C303        C  0.37624141  0.35335335  0.86800273    -0.07400
C304        C  0.34891995  0.37396466  0.83193331     0.13400
C305        C  0.35349192  0.42599056  0.81501492    -0.24300
H306        H  0.29625086  0.36208761  0.78338002     0.14700
H307        H  0.38785843  0.29024137  0.91243869     0.14700
C308        C  0.32725207  0.23246794  0.89191085    -0.24200
H309        H  0.32838773  0.43649819  0.78814048     0.04900
H310        H  0.38436200  0.43017274  0.79549339     0.08200
H311        H  0.35119157  0.45165301  0.84797508     0.08200
H312        H  0.35376825  0.20584624  0.88597607     0.08200
H313        H  0.29736843  0.21666732  0.88249642     0.08200
H314        H  0.32488009  0.24166600  0.93283325     0.04900
C315        C  0.32470586  0.10911097  0.86626929    -0.20900
C316        C  0.36633031  0.10904336  0.84840052    -0.07400
C317        C  0.37502855  0.13372683  0.80392102     0.13400
C318        C  0.34322537  0.16278360  0.78227951    -0.20900
C319        C  0.30170833  0.16838148  0.80212232    -0.07400
C320        C  0.29187056  0.13559678  0.84240256     0.13400
C321        C  0.24821566  0.12621153  0.86168485    -0.24300
H322        H  0.31783597  0.08763637  0.89909609     0.14700
H323        H  0.35082809  0.17869025  0.74749875     0.14700
C324        C  0.41815867  0.13006238  0.77935481    -0.24200
H325        H  0.24832885  0.10362927  0.89595017     0.04900
H326        H  0.23171763  0.10419551  0.83297964     0.08200
H327        H  0.23129380  0.16008145  0.87246923     0.08200
H328        H  0.42553492  0.09121082  0.76899008     0.08200
H329        H  0.44247472  0.14397026  0.80574709     0.08200
H330        H  0.41989062  0.15166831  0.74451505     0.04900
C331        C  0.17642462  0.33711225  0.90745195    -0.20900
C332        C  0.15982994  0.37941778  0.88568483    -0.07400
C333        C  0.18176795  0.39729785  0.84315613     0.13400
C334        C  0.21113835  0.36590174  0.81723494    -0.20900
C335        C  0.21520276  0.31597604  0.82967674    -0.07400
C336        C  0.20524264  0.30627786  0.88087521     0.13400
C337        C  0.22094713  0.26218127  0.90728732    -0.24300
H338        H  0.16455859  0.32582407  0.94373289     0.14700
H339        H  0.22572801  0.37851151  0.78301671     0.14700
C340        C  0.17428510  0.44833823  0.82427068    -0.24200
H341        H  0.24450877  0.27309177  0.93602339     0.04900
H342        H  0.23504182  0.23709690  0.87959965     0.08200
H343        H  0.19457826  0.24301195  0.92605290     0.08200
H344        H  0.17935010  0.47555098  0.85524347     0.08200
H345        H  0.14174265  0.45247685  0.80974811     0.08200
H346        H  0.19635516  0.45681318  0.79298898     0.04900
C347        C  0.38550125  0.32483637  0.66818812    -0.20900
C348        C  0.37217439  0.36757720  0.64504185    -0.07400
C349        C  0.32995164  0.38370563  0.65400140     0.13400
C350        C  0.30145131  0.35388247  0.68123857    -0.20900
C351        C  0.31402201  0.30890859  0.70284630    -0.07400
C352        C  0.35865806  0.29847575  0.70009199     0.13400
C353        C  0.38126990  0.26313435  0.73261903    -0.24300
H354        H  0.41852247  0.31382324  0.66443403     0.14700
H355        H  0.26959170  0.36729914  0.68718880     0.14700
C356        C  0.31486256  0.43226495  0.63470514    -0.24200
H357        H  0.40871980  0.28124052  0.75061093     0.04900
H358        H  0.39326455  0.23147956  0.70946495     0.08200
H359        H  0.36131851  0.25228126  0.76388661     0.08200
H360        H  0.31837308  0.43260977  0.59312006     0.08200
H361        H  0.33390528  0.46218649  0.65161425     0.08200
H362        H  0.28108379  0.43961821  0.64447784     0.04900
N363        N  0.45371817  0.94111565  0.09595007    -0.06700
N364        N  0.42227256  0.93431244  0.12840439    -0.58800
N365        N  0.05507197  0.91263095  0.06505950    -0.06400
N366        N  0.08724275  0.88301481  0.07526919    -0.60900
N367        N  0.05257465  0.94898461  0.09841576    -0.06000
N368        N  0.08287305  0.94442488  0.13214839    -0.58800
N369        N  0.45642624  0.90400453  0.06329618    -0.05600
N370        N  0.42719652  0.87112702  0.07371982    -0.61300
C371        C  0.40544798  0.89079225  0.11392018     0.95500
C372        C  0.10447444  0.90318025  0.11722511     0.95300
N373        N  0.05898265  0.93816053  0.41087678    -0.06900
N374        N  0.09454223  0.93525797  0.38419554    -0.59400
N375        N  0.46120929  0.89802985  0.44280046    -0.05000
N376        N  0.43057800  0.86596166  0.43629832    -0.60600
N377        N  0.46100565  0.92929167  0.40588177    -0.06900
N378        N  0.43029092  0.91938761  0.37399336    -0.59700
N379        N  0.05993520  0.90662255  0.44760932    -0.04600
N380        N  0.09628667  0.88190207  0.44649325    -0.60700
Mn381      Mn  0.00804714  0.90426890  0.50487543     1.18400
C382        C  0.11790973  0.90021367  0.40688961     0.97600
C383        C  0.41127522  0.87982579  0.39321331     0.98200
N384        N  0.04763357  0.56627981  0.09091756    -0.06900
N385        N  0.07771515  0.58004837  0.12259953    -0.63200
N386        N  0.44687484  0.59040701  0.05063388    -0.05700
N387        N  0.41431139  0.62086601  0.05428116    -0.63900
N388        N  0.44749582  0.56012509  0.08837250    -0.06400
N389        N  0.41491478  0.56954781  0.11866312    -0.63500
N390        N  0.04598492  0.59663708  0.05306028    -0.05300
N391        N  0.07492425  0.63101284  0.05802895    -0.64200
Mn392      Mn  0.00119814  0.50444981  0.09583309     1.10700
C393        C  0.09496197  0.62007842  0.10120898     0.98800
C394        C  0.39458196  0.60760374  0.09678765     0.98900
N395        N  0.45153780  0.54378372  0.40029641    -0.06400
N396        N  0.42150659  0.54767206  0.36615139    -0.61800
N397        N  0.04413278  0.58673782  0.43453902    -0.05800
N398        N  0.06901221  0.62327348  0.42412046    -0.58500
N399        N  0.04867550  0.55079582  0.40129022    -0.07100
N400        N  0.07697660  0.56247331  0.36700893    -0.61400
N401        N  0.44818632  0.57981083  0.43399315    -0.06100
N402        N  0.41562923  0.60874794  0.42350735    -0.58600
Mn403      Mn  0.50548745  0.99021717  0.40275312     1.20200
Mn404      Mn  0.49590103  0.59080580  0.99358350     1.10100
Cl405      Cl  0.00334073  0.49687103  0.99961482    -0.86500
C406        C  0.39903119  0.58803659  0.38142370     0.95800
C407        C  0.08937547  0.60790140  0.38199031     0.95600
C408        C  0.22055010  0.71963269  0.27913405    -0.03100
C409        C  0.22958350  0.77670299  0.28942315    -0.03100
C410        C  0.22991852  0.78472724  0.23047948    -0.03100
C411        C  0.22169089  0.72874366  0.22099836    -0.03100
C412        C  0.27026080  0.70885064  0.27924246    -0.03100
C413        C  0.27104459  0.71744042  0.22041173    -0.03100
C414        C  0.27958618  0.77434676  0.22987066    -0.03100
C415        C  0.27843662  0.76582649  0.28845297    -0.03100
C416        C  0.15559953  0.71300566  0.33567767    -0.20900
C417        C  0.18284203  0.68953042  0.30044543    -0.07400
C418        C  0.17061848  0.64080393  0.28523468     0.13400
C419        C  0.14089235  0.61574447  0.31364268    -0.20900
C420        C  0.11950564  0.63795362  0.35406033    -0.07400
C421        C  0.12546278  0.68837640  0.36394202     0.13400
C422        C  0.09984355  0.71747430  0.40278520    -0.24300
H423        H  0.15525831  0.75203661  0.33888608     0.14700
H424        H  0.13394888  0.57799431  0.30329285     0.14700
C425        C  0.18451999  0.61211082  0.23928806    -0.24200
H426        H  0.10794185  0.75695896  0.40338116     0.04900
H427        H  0.10632388  0.70361906  0.44094031     0.08200
H428        H  0.06561037  0.71492182  0.39427968     0.08200
H429        H  0.19879657  0.57651265  0.25021840     0.08200
H430        H  0.20667361  0.63141941  0.21617416     0.08200
H431        H  0.15664752  0.60392620  0.21556012     0.04900
C432        C  0.16629506  0.84571706  0.22392366    -0.20900
C433        C  0.20032795  0.82030424  0.19958828    -0.07400
C434        C  0.20142909  0.82392144  0.14587865     0.13400
C435        C  0.17150195  0.85333443  0.12065987    -0.20900
C436        C  0.13887314  0.87891579  0.14641348    -0.07400
C437        C  0.13675389  0.87536023  0.19909645     0.13100
C438        C  0.10129175  0.89945194  0.22948339    -0.24300
H439        H  0.15881404  0.83864483  0.26228391     0.14700
H440        H  0.17278202  0.85480046  0.07992405     0.14700
C441        C  0.23178369  0.79547883  0.11261942    -0.24200
H442        H  0.10286789  0.89038244  0.26995515     0.04900
H443        H  0.07027032  0.88682409  0.21530604     0.08200
H444        H  0.10316410  0.93989460  0.22686140     0.08200
H445        H  0.25007904  0.76944829  0.13424190     0.08200
H446        H  0.25341446  0.82074863  0.09321290     0.08200
H447        H  0.21416138  0.77392394  0.08395212     0.04900
C448        C  0.33214716  0.60819195  0.15179477    -0.20900
C449        C  0.35777498  0.63393160  0.11939745    -0.07400
C450        C  0.34949798  0.68422567  0.11278239     0.13400
C451        C  0.31833435  0.70782403  0.14262418    -0.20900
C452        C  0.29620481  0.68428265  0.18134785    -0.07400
C453        C  0.30223019  0.63181370  0.18331664     0.13400
C454        C  0.28228778  0.59726786  0.21927892    -0.24300
H455        H  0.33745621  0.56894159  0.15489063     0.14700
H456        H  0.31323554  0.74587536  0.13596529     0.14700
C457        C  0.37452545  0.71436704  0.07638248    -0.24200
H458        H  0.30714504  0.57636013  0.23938273     0.04900
H459        H  0.26261579  0.57059159  0.19811002     0.08200
H460        H  0.26343393  0.61559185  0.24831668     0.08200
H461        H  0.37021311  0.69998600  0.03739670     0.08200
H462        H  0.40855675  0.71331118  0.08635689     0.08200
H463        H  0.36418850  0.75346923  0.07713158     0.04900
C464        C  0.19891358  0.68210499  0.13932129    -0.20900
C465        C  0.18667896  0.70963550  0.18312929    -0.07400
C466        C  0.14180156  0.71326622  0.19251576     0.13400
C467        C  0.11333070  0.68449279  0.16448978    -0.20900
C468        C  0.12688469  0.65255473  0.12588501    -0.07400
C469        C  0.16994086  0.65323038  0.11142227     0.13400
C470        C  0.18559541  0.62213148  0.06747913    -0.24300
H471        H  0.23154884  0.68082087  0.12772627     0.14700
H472        H  0.07982647  0.68615497  0.17385351     0.14700
C473        C  0.12111939  0.74529141  0.23218601    -0.24200
H474        H  0.22013171  0.62619890  0.06108338     0.04900
H475        H  0.16892342  0.63309972  0.03280261     0.08200
H476        H  0.17935646  0.58293907  0.07459052     0.08200
H477        H  0.14440741  0.76322817  0.25575630     0.08200
H478        H  0.10072639  0.72305193  0.25681056     0.08200
H479        H  0.10097247  0.77354260  0.21431345     0.04900
C480        C  0.31547567  0.84545015  0.31168053    -0.20900
C481        C  0.30868785  0.79609535  0.32416975    -0.07400
C482        C  0.33308306  0.77848724  0.36554244     0.13400
C483        C  0.36616094  0.80647927  0.38564019    -0.20900
C484        C  0.37494552  0.85350240  0.36942806    -0.07400
C485        C  0.34828087  0.87381279  0.33248055     0.13400
C486        C  0.35391068  0.92520193  0.31413284    -0.24300
H487        H  0.29602959  0.86181566  0.28336970     0.14700
H488        H  0.38500241  0.79132691  0.41568059     0.14700
C489        C  0.32458366  0.73356031  0.39461591    -0.24200
H490        H  0.32924112  0.93553497  0.28663760     0.04900
H491        H  0.38502295  0.92813864  0.29485011     0.08200
H492        H  0.35175882  0.95178268  0.34633721     0.08200
H493        H  0.35131979  0.70706196  0.38967897     0.08200
H494        H  0.29505491  0.71739946  0.38449235     0.08200
H495        H  0.32142286  0.74318687  0.43538125     0.04900
C496        C  0.32310287  0.61068867  0.36900944    -0.20900
C497        C  0.36492368  0.61136307  0.35179271    -0.07400
C498        C  0.37376928  0.63552799  0.30704700     0.13400
C499        C  0.34195348  0.66396180  0.28481536    -0.20900
C500        C  0.30032760  0.66913976  0.30419209    -0.07400
C501        C  0.29022952  0.63620876  0.34420394     0.13400
C502        C  0.24628337  0.62507678  0.36149050    -0.24300
H503        H  0.31607319  0.58913255  0.40175042     0.14700
H504        H  0.34956971  0.67965576  0.24976561     0.14700
C505        C  0.41695908  0.63163817  0.28264461    -0.24200
H506        H  0.24602248  0.60125958  0.39484834     0.04900
H507        H  0.23080084  0.60371461  0.33145711     0.08200
H508        H  0.22839900  0.65814682  0.37282036     0.08200
H509        H  0.42445195  0.59266971  0.27294529     0.08200
H510        H  0.44119016  0.64607371  0.30884756     0.08200
H511        H  0.41869838  0.65259239  0.24739192     0.04900
C512        C  0.17459662  0.83582288  0.40820462    -0.20900
C513        C  0.15896040  0.87887829  0.38700978    -0.07400
C514        C  0.18177626  0.89724914  0.34544050     0.13400
C515        C  0.21083836  0.86575054  0.31923221    -0.20900
C516        C  0.21401851  0.81554746  0.33073314    -0.07400
C517        C  0.20334895  0.80500629  0.38156914     0.13400
C518        C  0.21820146  0.76020463  0.40750634    -0.24300
H519        H  0.16204669  0.82403515  0.44399036     0.14700
H520        H  0.22584836  0.87868026  0.28541819     0.14700
C521        C  0.17571810  0.94906202  0.32810923    -0.24200
H522        H  0.24155133  0.77030230  0.43678853     0.04900
H523        H  0.23222935  0.73519782  0.37968832     0.08200
H524        H  0.19143310  0.74126137  0.42570892     0.08200
H525        H  0.18100953  0.97512881  0.36003966     0.08200
H526        H  0.14349030  0.95475940  0.31316435     0.08200
H527        H  0.19842036  0.95778238  0.29755880     0.04900
C528        C  0.38617399  0.82232267  0.16967903    -0.20900
C529        C  0.37298160  0.86376044  0.14412342    -0.07400
C530        C  0.33066095  0.88009326  0.15173083     0.13400
C531        C  0.30198001  0.85166685  0.18017708    -0.20900
C532        C  0.31424992  0.80775586  0.20395618    -0.07400
C533        C  0.35896305  0.79728518  0.20238996     0.13400
C534        C  0.38140357  0.76380278  0.23710064    -0.24300
H535        H  0.41932857  0.81150054  0.16716784     0.14700
H536        H  0.27007288  0.86533419  0.18508660     0.14700
C537        C  0.31561811  0.92743806  0.12959960    -0.24200
H538        H  0.40784259  0.78347461  0.25554666     0.04900
H539        H  0.39482006  0.73189845  0.21546328     0.08200
H540        H  0.36096084  0.75295096  0.26786077     0.08200
H541        H  0.31956825  0.92562848  0.08805326     0.08200
H542        H  0.33435671  0.95828719  0.14513646     0.08200
H543        H  0.28171451  0.93506686  0.13847292     0.04900
N544        N  0.45468052  0.94358842  0.59660080    -0.06700
N545        N  0.42315955  0.93646842  0.62891956    -0.58800
N546        N  0.05524677  0.91329367  0.56484260    -0.06400
N547        N  0.08721387  0.88341836  0.57477287    -0.60900
N548        N  0.05315246  0.94979460  0.59805438    -0.06000
N549        N  0.08354235  0.94495011  0.63163649    -0.58800
N550        N  0.45733378  0.90670655  0.56364263    -0.05600
N551        N  0.42802468  0.87383194  0.57353500    -0.61300
C552        C  0.40626432  0.89309054  0.61382366     0.95500
C553        C  0.10474196  0.90348979  0.61644690     0.95300
N554        N  0.05824579  0.93858332  0.91002482    -0.06900
N555        N  0.09322824  0.93523024  0.88228597    -0.59400
N556        N  0.46146078  0.89536274  0.94176171    -0.05000
N557        N  0.43120758  0.86295370  0.93445014    -0.60600
N558        N  0.46164150  0.92670693  0.90486016    -0.06900
N559        N  0.43158049  0.91648192  0.87222038    -0.59700
N560        N  0.05948564  0.90680679  0.94657632    -0.04600
N561        N  0.09552435  0.88143183  0.94414632    -0.60700
Mn562      Mn  0.00768087  0.90423601  0.00463014     1.18400
C563        C  0.11661763  0.89960427  0.90398912     0.97600
C564        C  0.41253932  0.87671718  0.89093413     0.98200
N565        N  0.04770339  0.56657758  0.58837635    -0.06900
N566        N  0.07881589  0.58040917  0.61858224    -0.63200
N567        N  0.44929226  0.59026023  0.55152338    -0.05700
N568        N  0.41718136  0.62123045  0.55554829    -0.63900
N569        N  0.45023802  0.56039222  0.58953894    -0.06400
N570        N  0.41825315  0.57056388  0.62050747    -0.63500
N571        N  0.04506210  0.59666988  0.55039184    -0.05300
N572        N  0.07435984  0.63086968  0.55377516    -0.64200
Mn573      Mn  0.00136449  0.50453991  0.59499186     1.10700
C574        C  0.09576772  0.62008771  0.59610796     0.98800
C575        C  0.39806460  0.60873196  0.59863314     0.98900
N576        N  0.45223150  0.54498322  0.89945601    -0.06400
N577        N  0.42288696  0.54882322  0.86447332    -0.61800
N578        N  0.04604483  0.58801569  0.93577192    -0.05800
N579        N  0.07108161  0.62425159  0.92448749    -0.58500
N580        N  0.04938660  0.55226885  0.90207684    -0.07100
N581        N  0.07692959  0.56365087  0.86683634    -0.61400
N582        N  0.44838758  0.58115851  0.93289133    -0.06100
N583        N  0.41612721  0.61015264  0.92143688    -0.58600
Mn584      Mn  0.50603969  0.98790992  0.90226771     1.20200
Mn585      Mn  0.49693377  0.58944687  0.49333173     1.10100
Cl586      Cl  0.00296673  0.49553430  0.49886379    -0.86500
C587        C  0.40027678  0.58932134  0.87899250     0.95800
C588        C  0.09020240  0.60874966  0.88146095     0.95600
C589        C  0.22088698  0.71902217  0.77598212    -0.03100
C590        C  0.22973862  0.77614980  0.78660505    -0.03100
C591        C  0.23020752  0.78434086  0.72770633    -0.03100
C592        C  0.22212287  0.72833778  0.71783968    -0.03100
C593        C  0.27070394  0.70854258  0.77621007    -0.03100
C594        C  0.27154550  0.71750400  0.71746222    -0.03100
C595        C  0.27996051  0.77437393  0.72728227    -0.03100
C596        C  0.27859181  0.76544980  0.78579465    -0.03100
C597        C  0.15585123  0.71306709  0.83238177    -0.20900
C598        C  0.18317852  0.68902035  0.79754436    -0.07400
C599        C  0.17075354  0.64021044  0.78283381     0.13400
C600        C  0.14141734  0.61537621  0.81218372    -0.20900
C601        C  0.11994811  0.63828457  0.85227215    -0.07400
C602        C  0.12528730  0.68898433  0.86053601     0.13400
C603        C  0.09813471  0.71908981  0.89701739    -0.24300
H604        H  0.15543463  0.75175609  0.83485697     0.14700
H605        H  0.13460556  0.57743237  0.80265800     0.14700
C606        C  0.18368213  0.61147289  0.73641675    -0.24200
H607        H  0.10525893  0.75877981  0.89574737     0.04900
H608        H  0.10398892  0.70745823  0.93611016     0.08200
H609        H  0.06421184  0.71487990  0.88754311     0.08200
H610        H  0.19828866  0.57591527  0.74689929     0.08200
H611        H  0.20519301  0.63063236  0.71225379     0.08200
H612        H  0.15524743  0.60325527  0.71365281     0.04900
C613        C  0.16525161  0.84305773  0.72184256    -0.20900
C614        C  0.20031193  0.81977689  0.69735880    -0.07400
C615        C  0.20184321  0.82468232  0.64383348     0.13400
C616        C  0.17218546  0.85487414  0.61924443    -0.20900
C617        C  0.13869509  0.87855878  0.64527488    -0.07400
C618        C  0.13493974  0.87174331  0.69732058     0.13100
C619        C  0.09674303  0.89057148  0.72679123    -0.24300
H620        H  0.15775998  0.83496041  0.75991851     0.14700
H621        H  0.17413875  0.85810320  0.57869482     0.14700
C622        C  0.23235788  0.79690933  0.61010976    -0.24200
H623        H  0.09732518  0.87913278  0.76663341     0.04900
H624        H  0.06743368  0.87594268  0.70971314     0.08200
H625        H  0.09566593  0.93121898  0.72687415     0.08200
H626        H  0.25107879  0.77077455  0.63124409     0.08200
H627        H  0.25366748  0.82262967  0.59084386     0.08200
H628        H  0.21476293  0.77556579  0.58125604     0.04900
C629        C  0.33465747  0.60891125  0.65184515    -0.20900
C630        C  0.36101896  0.63488761  0.62051315    -0.07400
C631        C  0.35247929  0.68501837  0.61305444     0.13400
C632        C  0.31997565  0.70828159  0.64098278    -0.20900
C633        C  0.29702597  0.68458761  0.67883589    -0.07400
C634        C  0.30332912  0.63228726  0.68143664     0.13400
C635        C  0.28201537  0.59800987  0.71647699    -0.24300
H636        H  0.34021230  0.56977301  0.65548766     0.14700
H637        H  0.31443345  0.74617530  0.63375064     0.14700
C638        C  0.37859186  0.71536157  0.57791625    -0.24200
H639        H  0.30601856  0.57703922  0.73788670     0.04900
H640        H  0.26286696  0.57143607  0.69449026     0.08200
H641        H  0.26241224  0.61688730  0.74446651     0.08200
H642        H  0.37556768  0.70112980  0.53868719     0.08200
H643        H  0.41227063  0.71436994  0.58943767     0.08200
H644        H  0.36814767  0.75442371  0.57834515     0.04900
C645        C  0.19969505  0.68285282  0.63485195    -0.20900
C646        C  0.18728649  0.70929576  0.67934699    -0.07400
C647        C  0.14229348  0.71224662  0.68846002     0.13400
C648        C  0.11405252  0.68395002  0.65966974    -0.20900
C649        C  0.12767628  0.65322038  0.62022525    -0.07400
C650        C  0.17070716  0.65506260  0.60554872     0.13400
C651        C  0.18616526  0.62687404  0.55954812    -0.24300
H652        H  0.23249854  0.68206134  0.62341610     0.14700
H653        H  0.08055374  0.68492633  0.66918312     0.14700
C654        C  0.12103642  0.74279078  0.72875496    -0.24200
H655        H  0.22060254  0.63175461  0.55303779     0.04900
H656        H  0.16907212  0.63990185  0.52593411     0.08200
H657        H  0.18028156  0.58719643  0.56403981     0.08200
H658        H  0.14408130  0.76056580  0.75253092     0.08200
H659        H  0.10107223  0.71949703  0.75282185     0.08200
H660        H  0.10041427  0.77103365  0.71160958     0.04900
C661        C  0.31587663  0.84445260  0.81004095    -0.20900
C662        C  0.30878962  0.79507005  0.82199348    -0.07400
C663        C  0.33334109  0.77662769  0.86285044     0.13400
C664        C  0.36724371  0.80361384  0.88239254    -0.20900
C665        C  0.37620120  0.85078629  0.86677793    -0.07400
C666        C  0.34921497  0.87203595  0.83069857     0.13400
C667        C  0.35498765  0.92370087  0.81327773    -0.24300
H668        H  0.29622190  0.86141016  0.78220857     0.14700
H669        H  0.38628613  0.78781219  0.91185683     0.14700
C670        C  0.32392172  0.73230212  0.89248190    -0.24200
H671        H  0.33003302  0.93480930  0.78647513     0.04900
H672        H  0.38588150  0.92668944  0.79351362     0.08200
H673        H  0.35342614  0.94968519  0.84601574     0.08200
H674        H  0.35033066  0.70536824  0.88844494     0.08200
H675        H  0.29419023  0.71628964  0.88206832     0.08200
H676        H  0.32048306  0.74261569  0.93301612     0.04900
C677        C  0.32421677  0.61002871  0.86508645    -0.20900
C678        C  0.36624401  0.61213275  0.84884552    -0.07400
C679        C  0.37530447  0.63737859  0.80481758     0.13400
C680        C  0.34310654  0.66479277  0.78201143    -0.20900
C681        C  0.30122333  0.66899707  0.80084483    -0.07400
C682        C  0.29128250  0.63555442  0.84039537     0.13400
C683        C  0.24737527  0.62445663  0.85772630    -0.24300
H684        H  0.31714904  0.58781509  0.89733894     0.14700
H685        H  0.35080555  0.68080726  0.74695951     0.14700
C686        C  0.41917367  0.63588537  0.78204052    -0.24200
H687        H  0.24711389  0.60054080  0.89099201     0.04900
H688        H  0.23178659  0.60332694  0.82763030     0.08200
H689        H  0.22966443  0.65769991  0.86921330     0.08200
H690        H  0.42835529  0.59741431  0.77218841     0.08200
H691        H  0.44212448  0.65121242  0.80935903     0.08200
H692        H  0.42106992  0.65734970  0.74714115     0.04900
C693        C  0.17383451  0.83567195  0.90478068    -0.20900
C694        C  0.15744127  0.87814983  0.88312560    -0.07400
C695        C  0.17964713  0.89618979  0.84083387     0.13400
C696        C  0.20976893  0.86524939  0.81552536    -0.20900
C697        C  0.21383943  0.81526453  0.82763881    -0.07400
C698        C  0.20298386  0.80501336  0.87848534     0.13400
C699        C  0.21783731  0.76040591  0.90472521    -0.24300
H700        H  0.16156793  0.82411334  0.94077354     0.14700
H701        H  0.22482681  0.87809979  0.78167561     0.14700
C702        C  0.17144267  0.94681171  0.82126500    -0.24200
H703        H  0.24124775  0.77064912  0.93383069     0.04900
H704        H  0.23176093  0.73502042  0.87696988     0.08200
H705        H  0.19107594  0.74162318  0.92306072     0.08200
H706        H  0.17575338  0.97450960  0.85196425     0.08200
H707        H  0.13893977  0.94988178  0.80633702     0.08200
H708        H  0.19356922  0.95546925  0.79010054     0.04900
C709        C  0.38719787  0.82484208  0.66988593    -0.20900
C710        C  0.37374396  0.86552556  0.64337467    -0.07400
C711        C  0.33077739  0.88003995  0.64843363     0.13400
C712        C  0.30222330  0.85156511  0.67704730    -0.20900
C713        C  0.31472466  0.80824708  0.70180058    -0.07400
C714        C  0.35967837  0.79881558  0.70139662     0.13400
C715        C  0.38213949  0.76540161  0.73612017    -0.24300
H716        H  0.42061284  0.81509041  0.66864674     0.14700
H717        H  0.27007892  0.86455469  0.68087824     0.14700
C718        C  0.31483551  0.92521194  0.62284137    -0.24200
H719        H  0.40792642  0.78540825  0.75551594     0.04900
H720        H  0.39639485  0.73409529  0.71431225     0.08200
H721        H  0.36146614  0.75363536  0.76613326     0.08200
H722        H  0.32021779  0.92120762  0.58160414     0.08200
H723        H  0.33194367  0.95780970  0.63726467     0.08200
H724        H  0.28044418  0.93150862  0.62968744     0.04900
N725        N  0.95443799  0.44286564  0.09714092    -0.06700
N726        N  0.92292094  0.43557730  0.12944671    -0.58800
N727        N  0.55439841  0.41342993  0.06625239    -0.06400
N728        N  0.58649714  0.38378813  0.07657354    -0.60900
N729        N  0.55167547  0.44968066  0.09970016    -0.06000
N730        N  0.58180489  0.44493928  0.13370320    -0.58800
N731        N  0.95748185  0.40584963  0.06440127    -0.05600
N732        N  0.92843228  0.37266885  0.07450633    -0.61300
C733        C  0.90640557  0.39189807  0.11467564     0.95500
C734        C  0.60352403  0.40370577  0.11873552     0.95300
N735        N  0.55823713  0.43728171  0.41081963    -0.06900
N736        N  0.59378864  0.43380729  0.38411447    -0.59400
N737        N  0.96224717  0.39520629  0.44323343    -0.05000
N738        N  0.93219737  0.36242652  0.43614925    -0.60600
N739        N  0.96230749  0.42614684  0.40598346    -0.06900
N740        N  0.93242577  0.41529294  0.37335053    -0.59700
N741        N  0.55874973  0.40552053  0.44741313    -0.04600
N742        N  0.59475848  0.38010331  0.44612549    -0.60700
Mn743      Mn  0.50678393  0.40382313  0.50484227     1.18400
C744        C  0.61668598  0.39820348  0.40663491     0.97600
C745        C  0.91355124  0.37557467  0.39236980     0.98200
N746        N  0.54683546  0.06438853  0.08991658    -0.06900
N747        N  0.57732879  0.07789764  0.12122353    -0.63200
N748        N  0.94794445  0.08980517  0.05145209    -0.05700
N749        N  0.91568265  0.12059229  0.05551012    -0.63900
N750        N  0.94879018  0.05959889  0.08920070    -0.06400
N751        N  0.91664306  0.06940006  0.12001716    -0.63500
N752        N  0.54476520  0.09500187  0.05231589    -0.05300
N753        N  0.57384657  0.12931830  0.05714372    -0.64200
Mn754      Mn  0.50041596  0.00240651  0.09469412     1.10700
C755        C  0.59445042  0.11810583  0.09995265     0.98800
C756        C  0.89638569  0.10763908  0.09834411     0.98900
N757        N  0.95148201  0.04310091  0.39957621    -0.06400
N758        N  0.92151798  0.04660172  0.36527317    -0.61800
N759        N  0.54469866  0.08825479  0.43507663    -0.05800
N760        N  0.56974325  0.12456130  0.42426949    -0.58500
N761        N  0.54840545  0.05250868  0.40147582    -0.07100
N762        N  0.57621196  0.06400339  0.36662121    -0.61400
N763        N  0.94774203  0.07917259  0.43315221    -0.06100
N764        N  0.91499943  0.10771472  0.42248673    -0.58600
Mn765      Mn  0.00614490  0.48782564  0.40268938     1.20200
Mn766      Mn  0.99611865  0.08984392  0.99379021     1.10100
Cl767      Cl  0.50256599  0.99459315  0.99851961    -0.86500
C768        C  0.89865721  0.08674366  0.38043186     0.95800
C769        C  0.58921410  0.10914303  0.38153267     0.95600
C770        C  0.72044650  0.21900404  0.27792426    -0.03100
C771        C  0.72957419  0.27598331  0.28862226    -0.03100
C772        C  0.72998078  0.28421600  0.22964931    -0.03100
C773        C  0.72177101  0.22813600  0.21976789    -0.03100
C774        C  0.77014456  0.20811430  0.27833913    -0.03100
C775        C  0.77115739  0.21687968  0.21955755    -0.03100
C776        C  0.77975537  0.27381909  0.22915618    -0.03100
C777        C  0.77842538  0.26496739  0.28776464    -0.03100
C778        C  0.65419997  0.21381422  0.33242005    -0.20900
C779        C  0.68234021  0.18945803  0.29879224    -0.07400
C780        C  0.67059356  0.14037031  0.28455421     0.13400
C781        C  0.64102521  0.11565460  0.31343984    -0.20900
C782        C  0.61903429  0.13877967  0.35288620    -0.07400
C783        C  0.62394044  0.18959945  0.36088785     0.13400
C784        C  0.59703152  0.21947510  0.39781596    -0.24300
H785        H  0.65343032  0.25270495  0.33432449     0.14700
H786        H  0.63467971  0.07753996  0.30423476     0.14700
C787        C  0.68473176  0.11108156  0.23911232    -0.24200
H788        H  0.60401854  0.25919243  0.39655795     0.04900
H789        H  0.60333953  0.20770443  0.43677237     0.08200
H790        H  0.56302687  0.21516402  0.38884547     0.08200
H791        H  0.69918291  0.07573530  0.25051146     0.08200
H792        H  0.70678598  0.13029688  0.21581971     0.08200
H793        H  0.65694935  0.10243407  0.21540855     0.04900
C794        C  0.66706753  0.34653429  0.22440209    -0.20900
C795        C  0.70029967  0.32023448  0.19937983    -0.07400
C796        C  0.70039769  0.32337615  0.14566282     0.13400
C797        C  0.67011986  0.35283311  0.12099819    -0.20900
C798        C  0.63837316  0.37943911  0.14738295    -0.07400
C799        C  0.63747572  0.37666111  0.20016763     0.13100
C800        C  0.60313197  0.40195020  0.23137116    -0.24300
H801        H  0.65974554  0.33920566  0.26271082     0.14700
H802        H  0.67051939  0.35367729  0.08021589     0.14700
C803        C  0.73009537  0.29443954  0.11191476    -0.24200
H804        H  0.60553012  0.39337316  0.27189425     0.04900
H805        H  0.57156631  0.38983257  0.21849081     0.08200
H806        H  0.60559171  0.44228104  0.22801799     0.08200
H807        H  0.74949321  0.26920627  0.13325087     0.08200
H808        H  0.75088766  0.31953957  0.09102079     0.08200
H809        H  0.71182321  0.27209142  0.08449805     0.04900
C810        C  0.83397161  0.10801007  0.15307638    -0.20900
C811        C  0.85954929  0.13385514  0.12078893    -0.07400
C812        C  0.85070079  0.18392721  0.11338221     0.13400
C813        C  0.81882522  0.20730674  0.14234085    -0.20900
C814        C  0.79668219  0.18371740  0.18099008    -0.07400
C815        C  0.80327288  0.13136647  0.18360259     0.13400
C816        C  0.78291108  0.09667378  0.21906748    -0.24300
H817        H  0.83969570  0.06889282  0.15664954     0.14700
H818        H  0.81307613  0.24506905  0.13513584     0.14700
C819        C  0.87574403  0.21407907  0.07701511    -0.24200
H820        H  0.80749855  0.07595949  0.23982343     0.04900
H821        H  0.76368425  0.06987321  0.19747124     0.08200
H822        H  0.76352754  0.11490371  0.24758537     0.08200
H823        H  0.87187571  0.19934610  0.03808538     0.08200
H824        H  0.90969709  0.21351268  0.08739041     0.08200
H825        H  0.86504384  0.25304505  0.07733497     0.04900
C826        C  0.69922154  0.17932394  0.13866429    -0.20900
C827        C  0.68690810  0.20824999  0.18162279    -0.07400
C828        C  0.64192328  0.21263131  0.19003253     0.13400
C829        C  0.61333954  0.18373062  0.16212662    -0.20900
C830        C  0.62679363  0.15052337  0.12456765    -0.07400
C831        C  0.67015602  0.14999134  0.11110993     0.13400
C832        C  0.68600675  0.11719969  0.06856284    -0.24300
H833        H  0.73196806  0.17715771  0.12767905     0.14700
H834        H  0.57975805  0.18634802  0.17080259     0.14700
C835        C  0.62118395  0.24597453  0.22842165    -0.24200
H836        H  0.72069395  0.12040390  0.06276377     0.04900
H837        H  0.67001662  0.12729313  0.03314932     0.08200
H838        H  0.67907251  0.07842530  0.07690650     0.08200
H839        H  0.64447417  0.26370194  0.25208038     0.08200
H840        H  0.59996802  0.22484266  0.25312179     0.08200
H841        H  0.60194697  0.27431750  0.20939331     0.04900
C842        C  0.81672228  0.34344791  0.31155647    -0.20900
C843        C  0.80906525  0.29429151  0.32386784    -0.07400
C844        C  0.83358094  0.27578221  0.36481356     0.13400
C845        C  0.86771245  0.30258370  0.38428173    -0.20900
C846        C  0.87708192  0.34956615  0.36837506    -0.07400
C847        C  0.85033283  0.37074815  0.33198220     0.13400
C848        C  0.85666589  0.42208472  0.31385358    -0.24300
H849        H  0.79730524  0.36045341  0.28355444     0.14700
H850        H  0.88662909  0.28681576  0.41389191     0.14700
C851        C  0.82394796  0.23157989  0.39459052    -0.24200
H852        H  0.83187700  0.43320190  0.28684358     0.04900
H853        H  0.88761272  0.42437463  0.29406703     0.08200
H854        H  0.85530603  0.44851460  0.34622442     0.08200
H855        H  0.85010953  0.20431793  0.39040388     0.08200
H856        H  0.79404804  0.21585709  0.38444477     0.08200
H857        H  0.82076227  0.24197597  0.43513297     0.04900
C858        C  0.82269263  0.10858472  0.36709669    -0.20900
C859        C  0.86468327  0.11002554  0.35058992    -0.07400
C860        C  0.87397309  0.13578857  0.30698665     0.13400
C861        C  0.84212512  0.16412069  0.28471371    -0.20900
C862        C  0.80023521  0.16847548  0.30342195    -0.07400
C863        C  0.78996229  0.13482002  0.34276179     0.13400
C864        C  0.74596650  0.12347864  0.35975961    -0.24300
H865        H  0.81547141  0.08611184  0.39909742     0.14700
H866        H  0.84993562  0.18034263  0.24994043     0.14700
C867        C  0.91775791  0.13382791  0.28400865    -0.24200
H868        H  0.74563541  0.10000803  0.39336538     0.04900
H869        H  0.73079339  0.10171515  0.32982865     0.08200
H870        H  0.72772559  0.15645793  0.37061565     0.08200
H871        H  0.92630069  0.09536173  0.27332372     0.08200
H872        H  0.94103027  0.14812173  0.31151692     0.08200
H873        H  0.91990853  0.15594991  0.24958567     0.04900
C874        C  0.67249790  0.33260201  0.40722501    -0.20900
C875        C  0.65777780  0.37652105  0.38698159    -0.07400
C876        C  0.68193579  0.39590241  0.34698480     0.13400
C877        C  0.71131270  0.36478239  0.32059626    -0.20900
C878        C  0.71389526  0.31419120  0.33067905    -0.07400
C879        C  0.70191116  0.30243032  0.38080621     0.13400
C880        C  0.71641754  0.25723067  0.40622290    -0.24300
H881        H  0.65898841  0.31986588  0.44213374     0.14700
H882        H  0.72701661  0.37844060  0.28755681     0.14700
C883        C  0.67722443  0.44857266  0.33187495    -0.24200
H884        H  0.73898241  0.26689636  0.43647900     0.04900
H885        H  0.73142905  0.23301527  0.37823578     0.08200
H886        H  0.68942746  0.23759110  0.42301264     0.08200
H887        H  0.68231033  0.47309092  0.36511671     0.08200
H888        H  0.64543773  0.45582671  0.31632187     0.08200
H889        H  0.70076934  0.45798513  0.30249281     0.04900
C890        C  0.88685737  0.32297069  0.16995246    -0.20900
C891        C  0.87371646  0.36433173  0.14425283    -0.07400
C892        C  0.83100580  0.37968720  0.15055657     0.13400
C893        C  0.80219492  0.35090877  0.17860469    -0.20900
C894        C  0.81454847  0.30735858  0.20312335    -0.07400
C895        C  0.85942397  0.29743060  0.20207022     0.13400
C896        C  0.88195653  0.26418900  0.23691088    -0.24300
H897        H  0.92011176  0.31260326  0.16805056     0.14700
H898        H  0.77012257  0.36403703  0.18254324     0.14700
C899        C  0.81566605  0.42635792  0.12729877    -0.24200
H900        H  0.90815007  0.28410802  0.25559210     0.04900
H901        H  0.89567093  0.23241645  0.21534915     0.08200
H902        H  0.86151269  0.25315080  0.26749799     0.08200
H903        H  0.82047749  0.42403245  0.08588025     0.08200
H904        H  0.83360467  0.45783798  0.14288233     0.08200
H905        H  0.78149871  0.43333819  0.13508982     0.04900
N906        N  0.95466202  0.44304211  0.59728592    -0.06700
N907        N  0.92315684  0.43633273  0.62975547    -0.58800
N908        N  0.55418019  0.41142490  0.56507603    -0.06400
N909        N  0.58587834  0.38109425  0.57509898    -0.60900
N910        N  0.55252430  0.44798529  0.59821668    -0.06000
N911        N  0.58289651  0.44282020  0.63174746    -0.58800
N912        N  0.95740386  0.40575027  0.56482235    -0.05600
N913        N  0.92819240  0.37291973  0.57536638    -0.61300
C914        C  0.90636648  0.39268142  0.61543085     0.95500
C915        C  0.60366722  0.40104294  0.61675675     0.95300
N916        N  0.55895757  0.43946036  0.91156124    -0.06900
N917        N  0.59410688  0.43616346  0.88421152    -0.59400
N918        N  0.96159487  0.39784694  0.94329872    -0.05000
N919        N  0.93093692  0.36579400  0.93665849    -0.60600
N920        N  0.96126378  0.42937642  0.90657800    -0.06900
N921        N  0.93047138  0.41961152  0.87471806    -0.59700
N922        N  0.55997361  0.40770978  0.94811756    -0.04600
N923        N  0.59604149  0.38237520  0.94609562    -0.60700
Mn924      Mn  0.50768538  0.40501799  0.00521761     1.18400
C925        C  0.61735537  0.40060264  0.90613944     0.97600
C926        C  0.91148799  0.37991243  0.89372146     0.98200
N927        N  0.54889439  0.06607039  0.58900127    -0.06900
N928        N  0.58025744  0.07896625  0.61926477    -0.63200
N929        N  0.94744383  0.08953513  0.55064621    -0.05700
N930        N  0.91475304  0.11974863  0.55455493    -0.63900
N931        N  0.94874972  0.05966321  0.58867294    -0.06400
N932        N  0.91652008  0.06911042  0.61947728    -0.63500
N933        N  0.54655394  0.09665442  0.55138654    -0.05300
N934        N  0.57627071  0.13030966  0.55515907    -0.64200
Mn935      Mn  0.50183613  0.00477115  0.59516730     1.10700
C936        C  0.59765179  0.11861869  0.59724964     0.98800
C937        C  0.89565677  0.10676990  0.59755445     0.98900
N938        N  0.95120537  0.04412783  0.90066922    -0.06400
N939        N  0.92088655  0.04767345  0.86687587    -0.61800
N940        N  0.54510310  0.08602001  0.93539062    -0.05800
N941        N  0.57042554  0.12225911  0.92510714    -0.58500
N942        N  0.54924262  0.05030462  0.90176955    -0.07100
N943        N  0.57764382  0.06181286  0.86751205    -0.61400
N944        N  0.94777399  0.08005124  0.93441475    -0.06100
N945        N  0.91487891  0.10858549  0.92439768    -0.58600
Mn946      Mn  0.00600495  0.49026093  0.90338589     1.20200
Mn947      Mn  0.99581604  0.08973899  0.49296533     1.10100
Cl948      Cl  0.50309265  0.99700996  0.49899204    -0.86500
C949        C  0.89814528  0.08769399  0.88253523     0.95800
C950        C  0.59060521  0.10691822  0.88273741     0.95600
C951        C  0.72086219  0.21930008  0.77830281    -0.03100
C952        C  0.72963514  0.27651004  0.78846441    -0.03100
C953        C  0.73032573  0.28418799  0.72945705    -0.03100
C954        C  0.72248090  0.22806529  0.72007869    -0.03100
C955        C  0.77060269  0.20897599  0.77914167    -0.03100
C956        C  0.77189184  0.21724211  0.72025465    -0.03100
C957        C  0.78008608  0.27429162  0.72940114    -0.03100
C958        C  0.77856992  0.26603413  0.78806156    -0.03100
C959        C  0.65623289  0.21230320  0.83524810    -0.20900
C960        C  0.68327399  0.18890924  0.79967409    -0.07400
C961        C  0.67098293  0.14014865  0.78448532     0.13400
C962        C  0.64146532  0.11498816  0.81329304    -0.20900
C963        C  0.62057306  0.13698245  0.85429544    -0.07400
C964        C  0.62659884  0.18739817  0.86410685     0.13400
C965        C  0.60156710  0.21632150  0.90358674    -0.24300
H966        H  0.65571443  0.25094124  0.83834509     0.14700
H967        H  0.63440571  0.07730190  0.80294692     0.14700
C968        C  0.68475072  0.11144450  0.73840832    -0.24200
H969        H  0.60963469  0.25579787  0.90418141     0.04900
H970        H  0.60864711  0.20227719  0.94151912     0.08200
H971        H  0.56720285  0.21379196  0.89581545     0.08200
H972        H  0.69894624  0.07578586  0.74927204     0.08200
H973        H  0.70704765  0.13046559  0.71517227     0.08200
H974        H  0.65680308  0.10341974  0.71475033     0.04900
C975        C  0.66491324  0.34218557  0.72280291    -0.20900
C976        C  0.70024729  0.31918317  0.69865514    -0.07400
C977        C  0.70184752  0.32381354  0.64507957     0.13400
C978        C  0.67163284  0.35296270  0.62001835    -0.20900
C979        C  0.63777085  0.37626652  0.64571011    -0.07400
C980        C  0.63431019  0.37021231  0.69793954     0.13100
C981        C  0.59624225  0.38940202  0.72740004    -0.24300
H982        H  0.65753540  0.33440384  0.76110177     0.14700
H983        H  0.67359534  0.35582604  0.57939323     0.14700
C984        C  0.73297514  0.29652958  0.61183538    -0.24200
H985        H  0.59707013  0.37858656  0.76743738     0.04900
H986        H  0.56685967  0.37449212  0.71077719     0.08200
H987        H  0.59514218  0.43003048  0.72689059     0.08200
H988        H  0.75134360  0.27058991  0.63331845     0.08200
H989        H  0.75437555  0.32257410  0.59311783     0.08200
H990        H  0.71595466  0.27500238  0.58257496     0.04900
C991        C  0.83452031  0.10780778  0.65462067    -0.20900
C992        C  0.85893253  0.13299938  0.62046746    -0.07400
C993        C  0.84928671  0.18269823  0.61191357     0.13400
C994        C  0.81890006  0.20687980  0.64246571    -0.20900
C995        C  0.79738465  0.18378084  0.68195013    -0.07400
C996        C  0.80395728  0.13150600  0.68512979     0.13400
C997        C  0.78347392  0.09734832  0.72108080    -0.24300
H998        H  0.84068897  0.06890873  0.65915823     0.14700
H999        H  0.81375708  0.24470585  0.63560134     0.14700
C1000       C  0.87169388  0.21161794  0.57220055    -0.24200
H1001       H  0.80798021  0.07724053  0.74254337     0.04900
H1002       H  0.76467114  0.06995843  0.69973228     0.08200
H1003       H  0.76348309  0.11594434  0.74885775     0.08200
H1004       H  0.86615137  0.19477174  0.53445763     0.08200
H1005       H  0.90611898  0.21259048  0.58000553     0.08200
H1006       H  0.86005061  0.25018775  0.57119323     0.04900
C1007       C  0.70115862  0.18124917  0.63752651    -0.20900
C1008       C  0.68814300  0.20848102  0.68131596    -0.07400
C1009       C  0.64308973  0.21140173  0.68975747     0.13400
C1010       C  0.61520403  0.18307499  0.66046728    -0.20900
C1011       C  0.62939893  0.15143223  0.62201013    -0.07400
C1012       C  0.67275526  0.15224392  0.60872922     0.13400
C1013       C  0.68931244  0.12130068  0.56511841    -0.24300
H1014       H  0.73393915  0.18035184  0.62655914     0.14700
H1015       H  0.58156457  0.18443748  0.66910317     0.14700
C1016       C  0.62143487  0.24160934  0.73010304    -0.24200
H1017       H  0.72395654  0.12548522  0.55970635     0.04900
H1018       H  0.67330137  0.13230856  0.53001690     0.08200
H1019       H  0.68301164  0.08206558  0.57193039     0.08200
H1020       H  0.64411900  0.25953970  0.75440752     0.08200
H1021       H  0.60151579  0.21797162  0.75385310     0.08200
H1022       H  0.60070043  0.26972844  0.71295187     0.04900
C1023       C  0.81525313  0.34596164  0.81223613    -0.20900
C1024       C  0.80880913  0.29631802  0.82398272    -0.07400
C1025       C  0.83351670  0.27843797  0.86502050     0.13400
C1026       C  0.86691091  0.30613120  0.88486768    -0.20900
C1027       C  0.87512270  0.35362931  0.86971730    -0.07400
C1028       C  0.84771117  0.37450851  0.83382460     0.13400
C1029       C  0.85195533  0.42689783  0.81795009    -0.24300
H1030       H  0.79554473  0.36255419  0.78420179     0.14700
H1031       H  0.88616324  0.29056347  0.91431638     0.14700
C1032       C  0.82473621  0.23389130  0.89459208    -0.24200
H1033       H  0.82661515  0.43776350  0.79154057     0.04900
H1034       H  0.88268738  0.43169690  0.79831340     0.08200
H1035       H  0.84972323  0.45188747  0.85145903     0.08200
H1036       H  0.85119466  0.20705362  0.88983809     0.08200
H1037       H  0.79492985  0.21794543  0.88490396     0.08200
H1038       H  0.82182801  0.24394576  0.93526422     0.04900
C1039       C  0.82244769  0.11073368  0.86974798    -0.20900
C1040       C  0.86433858  0.11124225  0.85286470    -0.07400
C1041       C  0.87371699  0.13587664  0.80861381     0.13400
C1042       C  0.84221197  0.16454949  0.78620630    -0.20900
C1043       C  0.80036914  0.16951602  0.80488947    -0.07400
C1044       C  0.78986935  0.13658858  0.84481177     0.13400
C1045       C  0.74583966  0.12565876  0.86187038    -0.24300
H1046       H  0.81515035  0.08904519  0.90228738     0.14700
H1047       H  0.85009062  0.18009297  0.75140657     0.14700
C1048       C  0.91716959  0.13219213  0.78485464    -0.24200
H1049       H  0.74533751  0.10199462  0.89532956     0.04900
H1050       H  0.73053432  0.10412673  0.83185986     0.08200
H1051       H  0.72800694  0.15885147  0.87303713     0.08200
H1052       H  0.92461207  0.09334957  0.77452693     0.08200
H1053       H  0.94116078  0.14602140  0.81171371     0.08200
H1054       H  0.91941578  0.15380344  0.75008360     0.04900
C1055       C  0.67445034  0.33658080  0.90687214    -0.20900
C1056       C  0.65799021  0.37899096  0.88518961    -0.07400
C1057       C  0.67970865  0.39669832  0.84241365     0.13400
C1058       C  0.70932715  0.36549411  0.81674599    -0.20900
C1059       C  0.71353750  0.31564903  0.82921448    -0.07400
C1060       C  0.70321830  0.30569452  0.88029265     0.13400
C1061       C  0.71844745  0.26129993  0.90661628    -0.24300
H1062       H  0.66253738  0.32529756  0.94313984     0.14700
H1063       H  0.72405671  0.37810920  0.78260042     0.14700
C1064       C  0.67147185  0.44724757  0.82266233    -0.24200
H1065       H  0.74198960  0.27184154  0.93548457     0.04900
H1066       H  0.73234387  0.23597944  0.87888114     0.08200
H1067       H  0.69190875  0.24243778  0.92532839     0.08200
H1068       H  0.67592118  0.47507592  0.85320852     0.08200
H1069       H  0.63893313  0.45025602  0.80779956     0.08200
H1070       H  0.69350724  0.45575725  0.79136201     0.04900
C1071       C  0.88678489  0.32340382  0.67002982    -0.20900
C1072       C  0.87377590  0.36546568  0.64542174    -0.07400
C1073       C  0.83131088  0.38142216  0.65281182     0.13400
C1074       C  0.80245044  0.35232126  0.68043761    -0.20900
C1075       C  0.81470986  0.30805328  0.70366730    -0.07400
C1076       C  0.85942760  0.29765213  0.70197620     0.13400
C1077       C  0.88171149  0.26339272  0.73594860    -0.24300
H1078       H  0.91991126  0.31256208  0.66741305     0.14700
H1079       H  0.77044546  0.36562877  0.68512656     0.14700
C1080       C  0.81629069  0.42899576  0.63116663    -0.24200
H1081       H  0.90898897  0.28202579  0.75375671     0.04900
H1082       H  0.89394179  0.23115153  0.71386557     0.08200
H1083       H  0.86150288  0.25351807  0.76734939     0.08200
H1084       H  0.82068981  0.42779526  0.58966624     0.08200
H1085       H  0.83473803  0.45974550  0.64743566     0.08200
H1086       H  0.78227211  0.43628218  0.63963057     0.04900
N1087       N  0.95351768  0.94353843  0.09703284    -0.06700
N1088       N  0.92187481  0.93657003  0.12926418    -0.58800
N1089       N  0.55501613  0.91012325  0.06476276    -0.06400
N1090       N  0.58731476  0.88066032  0.07479828    -0.60900
N1091       N  0.55267463  0.94673819  0.09782552    -0.06000
N1092       N  0.58325496  0.94244085  0.13125369    -0.58800
N1093       N  0.95628044  0.90661490  0.06416074    -0.05600
N1094       N  0.92687846  0.87381470  0.07410293    -0.61300
C1095       C  0.90495059  0.89317295  0.11429994     0.95500
C1096       C  0.60482686  0.90110836  0.11639456     0.95300
N1097       N  0.55952869  0.93812091  0.41010018    -0.06900
N1098       N  0.59501248  0.93486337  0.38318295    -0.59400
N1099       N  0.96091933  0.89759104  0.44314154    -0.05000
N1100       N  0.93086270  0.86485631  0.43608234    -0.60600
N1101       N  0.96075609  0.92880776  0.40616134    -0.06900
N1102       N  0.93067293  0.91818214  0.37369817    -0.59700
N1103       N  0.56039500  0.90655526  0.44684395    -0.04600
N1104       N  0.59655856  0.88150528  0.44548924    -0.60700
Mn1105     Mn  0.50850817  0.90403606  0.50433499     1.18400
C1106       C  0.61821800  0.89955213  0.40577747     0.97600
C1107       C  0.91197079  0.87825074  0.39255978     0.98200
N1108       N  0.54587357  0.56697359  0.09095848    -0.06900
N1109       N  0.57663282  0.57968877  0.12210342    -0.63200
N1110       N  0.94887139  0.58955288  0.05080960    -0.05700
N1111       N  0.91637781  0.62011289  0.05430712    -0.63900
N1112       N  0.94931972  0.55924709  0.08851644    -0.06400
N1113       N  0.91668251  0.56877901  0.11868221    -0.63500
N1114       N  0.54411848  0.59773625  0.05345148    -0.05300
N1115       N  0.57367441  0.63143294  0.05819035    -0.64200
Mn1116     Mn  0.49945392  0.50542723  0.09587689     1.10700
C1117       C  0.59418090  0.61952779  0.10079838     0.98800
C1118       C  0.89649179  0.60690963  0.09670837     0.98900
N1119       N  0.95231833  0.54059939  0.39844079    -0.06400
N1120       N  0.92294616  0.54455263  0.36344907    -0.61800
N1121       N  0.54453728  0.58786667  0.43542255    -0.05800
N1122       N  0.56989042  0.62393191  0.42476133    -0.58500
N1123       N  0.54811327  0.55204889  0.40189411    -0.07100
N1124       N  0.57615316  0.56325994  0.36718120    -0.61400
N1125       N  0.94828297  0.57660933  0.43206168    -0.06100
N1126       N  0.91597067  0.60549445  0.42084274    -0.58600
Mn1127     Mn  0.00504520  0.99005525  0.40306141     1.20200
Mn1128     Mn  0.99761227  0.58947329  0.99352446     1.10100
Cl1129     Cl  0.50198717  0.49809203  0.99971005    -0.86500
C1130       C  0.90022143  0.58492487  0.37832853     0.95800
C1131       C  0.58940704  0.60829634  0.38214253     0.95600
C1132       C  0.72145129  0.71774718  0.27842071    -0.03100
C1133       C  0.73014925  0.77493278  0.28850801    -0.03100
C1134       C  0.73028324  0.78272852  0.22948599    -0.03100
C1135       C  0.72244371  0.72657821  0.22021985    -0.03100
C1136       C  0.77128620  0.70741145  0.27835109    -0.03100
C1137       C  0.77188758  0.71589756  0.21944084    -0.03100
C1138       C  0.77999124  0.77294426  0.22864421    -0.03100
C1139       C  0.77908687  0.76448890  0.28732389    -0.03100
C1140       C  0.65486812  0.71259821  0.33283988    -0.20900
C1141       C  0.68351523  0.68797221  0.29986088    -0.07400
C1142       C  0.67231135  0.63843918  0.28662034     0.13400
C1143       C  0.64328703  0.61363974  0.31622433    -0.20900
C1144       C  0.61980030  0.63751724  0.35390139    -0.07400
C1145       C  0.62363775  0.68865518  0.36023793     0.13400
C1146       C  0.59415424  0.71923196  0.39361751    -0.24300
H1147       H  0.65414369  0.75117697  0.33454437     0.14700
H1148       H  0.63788009  0.57508097  0.30825350     0.14700
C1149       C  0.68593213  0.60895387  0.24114711    -0.24200
H1150       H  0.60024099  0.75906372  0.39081767     0.04900
H1151       H  0.59856831  0.70963175  0.43359480     0.08200
H1152       H  0.56084887  0.71315080  0.38233594     0.08200
H1153       H  0.70124880  0.57408011  0.25251660     0.08200
H1154       H  0.70692957  0.62849538  0.21682029     0.08200
H1155       H  0.65777191  0.59948642  0.21839217     0.04900
C1156       C  0.66772156  0.84510224  0.22297148    -0.20900
C1157       C  0.70079986  0.81819753  0.19844483    -0.07400
C1158       C  0.70118269  0.82058239  0.14464485     0.13400
C1159       C  0.67117679  0.84987509  0.11938895    -0.20900
C1160       C  0.63948620  0.87697238  0.14529536    -0.07400
C1161       C  0.63836370  0.87494041  0.19811781     0.13100
C1162       C  0.60399681  0.90075913  0.22883428    -0.24300
H1163       H  0.66037723  0.83860607  0.26133484     0.14700
H1164       H  0.67170364  0.85018369  0.07858332     0.14700
C1165       C  0.73081900  0.79101037  0.11144259    -0.24200
H1166       H  0.60614536  0.89262840  0.26947546     0.04900
H1167       H  0.57243136  0.88867203  0.21591490     0.08200
H1168       H  0.60667412  0.94102430  0.22506630     0.08200
H1169       H  0.74941792  0.76534094  0.13323098     0.08200
H1170       H  0.75233454  0.81556790  0.09093453     0.08200
H1171       H  0.71258002  0.76897742  0.08374787     0.04900
C1172       C  0.83404042  0.60722958  0.15150935    -0.20900
C1173       C  0.85936502  0.63301044  0.11885780    -0.07400
C1174       C  0.85023411  0.68300867  0.11133157     0.13400
C1175       C  0.81909915  0.70655600  0.14132778    -0.20900
C1176       C  0.79735016  0.68303770  0.18038150    -0.07400
C1177       C  0.80372698  0.63067373  0.18254679     0.13400
C1178       C  0.78350144  0.59612430  0.21818454    -0.24300
H1179       H  0.83973329  0.56808846  0.15502783     0.14700
H1180       H  0.81352302  0.74463429  0.13438049     0.14700
C1181       C  0.87406244  0.71275098  0.07348441    -0.24200
H1182       H  0.80813914  0.57503780  0.23846590     0.04900
H1183       H  0.76378198  0.56966635  0.19679131     0.08200
H1184       H  0.76467995  0.61463946  0.24706848     0.08200
H1185       H  0.86946297  0.69709587  0.03504200     0.08200
H1186       H  0.90824398  0.71295187  0.08270806     0.08200
H1187       H  0.86286916  0.75154108  0.07328569     0.04900
C1188       C  0.69947389  0.67782153  0.13971312    -0.20900
C1189       C  0.68743225  0.70675840  0.18269649    -0.07400
C1190       C  0.64255506  0.71187922  0.19135727     0.13400
C1191       C  0.61367048  0.68382709  0.16329202    -0.20900
C1192       C  0.62679334  0.65098122  0.12537961    -0.07400
C1193       C  0.67005708  0.64954092  0.11183747     0.13400
C1194       C  0.68533205  0.61704619  0.06876145    -0.24300
H1195       H  0.73220719  0.67502324  0.12871841     0.14700
H1196       H  0.58010397  0.68690509  0.17199160     0.14700
C1197       C  0.62214805  0.74526024  0.22994153    -0.24200
H1198       H  0.72009990  0.61938889  0.06309962     0.04900
H1199       H  0.66962548  0.62820941  0.03352142     0.08200
H1200       H  0.67758214  0.57833323  0.07636163     0.08200
H1201       H  0.64562986  0.76288300  0.25334864     0.08200
H1202       H  0.60091142  0.72421279  0.25469530     0.08200
H1203       H  0.60290146  0.77372449  0.21110436     0.04900
C1204       C  0.81702057  0.84364696  0.30977257    -0.20900
C1205       C  0.80938220  0.79471276  0.32296344    -0.07400
C1206       C  0.83306933  0.77727181  0.36495451     0.13400
C1207       C  0.86611772  0.80517361  0.38545011    -0.20900
C1208       C  0.87594206  0.85165136  0.36829788    -0.07400
C1209       C  0.85038843  0.87143806  0.32995852     0.13400
C1210       C  0.85796400  0.92151909  0.30910289    -0.24300
H1211       H  0.79779150  0.86011181  0.28131229     0.14700
H1212       H  0.88413881  0.79038350  0.41633687     0.14700
C1213       C  0.82361627  0.73264930  0.39414250    -0.24200
H1214       H  0.83438543  0.93128489  0.28009142     0.04900
H1215       H  0.88964000  0.92228569  0.29080028     0.08200
H1216       H  0.85570687  0.94977796  0.33975241     0.08200
H1217       H  0.85022619  0.70582161  0.39027149     0.08200
H1218       H  0.79429347  0.71649627  0.38289959     0.08200
H1219       H  0.81947060  0.74266568  0.43469148     0.04900
C1220       C  0.82461243  0.60773594  0.36632748    -0.20900
C1221       C  0.86625644  0.60835413  0.34872654    -0.07400
C1222       C  0.87521200  0.63417197  0.30507381     0.13400
C1223       C  0.84330560  0.66304932  0.28365002    -0.20900
C1224       C  0.80166813  0.66778065  0.30308168    -0.07400
C1225       C  0.79178134  0.63437220  0.34279179     0.13400
C1226       C  0.74805721  0.62354401  0.36108735    -0.24300
H1227       H  0.81770662  0.58542394  0.39859094     0.14700
H1228       H  0.85087314  0.67943255  0.24870064     0.14700
C1229       C  0.91866127  0.63170967  0.28121426    -0.24200
H1230       H  0.74822377  0.60126732  0.39558436     0.04900
H1231       H  0.73258705  0.60068576  0.33220532     0.08200
H1232       H  0.72992436  0.65667415  0.37114326     0.08200
H1233       H  0.92663369  0.59319141  0.27011532     0.08200
H1234       H  0.94247957  0.64545416  0.30833326     0.08200
H1235       H  0.92055274  0.65408952  0.24691914     0.04900
C1236       C  0.67344438  0.83362190  0.40654533    -0.20900
C1237       C  0.65901707  0.87741594  0.38580694    -0.07400
C1238       C  0.68291734  0.89582310  0.34508723     0.13400
C1239       C  0.71203990  0.86404743  0.31913026    -0.20900
C1240       C  0.71437152  0.81361387  0.33001808    -0.07400
C1241       C  0.70226024  0.80261630  0.38031934     0.13400
C1242       C  0.71612607  0.75753630  0.40642222    -0.24300
H1243       H  0.66005843  0.82154779  0.44178325     0.14700
H1244       H  0.72768806  0.87704288  0.28576914     0.14700
C1245       C  0.67812586  0.94805907  0.32859818    -0.24200
H1246       H  0.73838997  0.76726642  0.43701857     0.04900
H1247       H  0.73125367  0.73305579  0.37903972     0.08200
H1248       H  0.68872920  0.73836354  0.42297715     0.08200
H1249       H  0.68386774  0.97341015  0.36100293     0.08200
H1250       H  0.64607525  0.95504132  0.31367285     0.08200
H1251       H  0.70117322  0.95655904  0.29833924     0.04900
C1252       C  0.88589348  0.82319548  0.16818965    -0.20900
C1253       C  0.87254807  0.86543147  0.14412096    -0.07400
C1254       C  0.83006747  0.88108921  0.15215776     0.13400
C1255       C  0.80144524  0.85124010  0.17926110    -0.20900
C1256       C  0.81413566  0.80697160  0.20227275    -0.07400
C1257       C  0.85893642  0.79712371  0.20032497     0.13400
C1258       C  0.88173777  0.76329993  0.23432231    -0.24300
H1259       H  0.91907816  0.81261590  0.16524432     0.14700
H1260       H  0.76942277  0.86436564  0.18425850     0.14700
C1261       C  0.81487514  0.92936090  0.13226118    -0.24200
H1262       H  0.90859608  0.78262617  0.25229231     0.04900
H1263       H  0.89462894  0.73141047  0.21221823     0.08200
H1264       H  0.86170568  0.75268749  0.26557799     0.08200
H1265       H  0.81895494  0.92951022  0.09073939     0.08200
H1266       H  0.83345077  0.95958033  0.14937741     0.08200
H1267       H  0.78092583  0.93642100  0.14134388     0.04900
N1268       N  0.95446146  0.94383772  0.59714743    -0.06700
N1269       N  0.92324255  0.93666829  0.62982418    -0.58800
N1270       N  0.55576286  0.91216345  0.56465076    -0.06400
N1271       N  0.58756135  0.88204065  0.57483916    -0.60900
N1272       N  0.55360387  0.94853120  0.59800274    -0.06000
N1273       N  0.58378874  0.94340453  0.63181671    -0.58800
N1274       N  0.95707553  0.90687569  0.56430712    -0.05600
N1275       N  0.92806463  0.87381264  0.57468354    -0.61300
C1276       C  0.90652114  0.89312604  0.61510638     0.95500
C1277       C  0.60494600  0.90184514  0.61682360     0.95300
N1278       N  0.55973857  0.93572847  0.91064490    -0.06900
N1279       N  0.59533594  0.93262932  0.88406827    -0.59400
N1280       N  0.96024965  0.89856160  0.94316219    -0.05000
N1281       N  0.92964139  0.86646848  0.93667030    -0.60600
N1282       N  0.95987175  0.93002543  0.90638791    -0.06900
N1283       N  0.92905198  0.92017424  0.87460924    -0.59700
N1284       N  0.56036544  0.90395371  0.94720766    -0.04600
N1285       N  0.59655522  0.87887936  0.94602247    -0.60700
Mn1286     Mn  0.50806276  0.90145343  0.00414685     1.18400
C1287       C  0.61840907  0.89725541  0.90661520     0.97600
C1288       C  0.91015275  0.88049324  0.89377827     0.98200
N1289       N  0.54898253  0.56546586  0.58910994    -0.06900
N1290       N  0.58060416  0.57805046  0.61914399    -0.63200
N1291       N  0.94777451  0.58793679  0.54942626    -0.05700
N1292       N  0.91535624  0.61851358  0.55334953    -0.63900
N1293       N  0.94923193  0.55858662  0.58784502    -0.06400
N1294       N  0.91738691  0.56871069  0.61898499    -0.63500
N1295       N  0.54666862  0.59607961  0.55152306    -0.05300
N1296       N  0.57666295  0.62941975  0.55506880    -0.64200
Mn1297     Mn  0.50140601  0.50473380  0.59551473     1.10700
C1298       C  0.59820161  0.61751725  0.59697824     0.98800
C1299       C  0.89665095  0.60627731  0.59681455     0.98900
N1300       N  0.95301440  0.54387299  0.90004102    -0.06400
N1301       N  0.92346480  0.54821346  0.86538520    -0.61800
N1302       N  0.54490256  0.58967646  0.93641757    -0.05800
N1303       N  0.57056715  0.62558930  0.92579729    -0.58500
N1304       N  0.54876211  0.55367626  0.90307889    -0.07100
N1305       N  0.57728253  0.56449643  0.86878043    -0.61400
N1306       N  0.94977333  0.58005212  0.93353747    -0.06100
N1307       N  0.91779079  0.60955571  0.92250094    -0.58600
Mn1308     Mn  0.00455082  0.99094481  0.90320566     1.20200
Mn1309     Mn  0.99603266  0.58782323  0.49180103     1.10100
Cl1310     Cl  0.50231093  0.49687353  0.49934442    -0.86500
C1311       C  0.90142689  0.58902159  0.88026489     0.95800
C1312       C  0.59061909  0.60952753  0.88352139     0.95600
C1313       C  0.72197911  0.71809236  0.77682692    -0.03100
C1314       C  0.73042742  0.77523119  0.78751488    -0.03100
C1315       C  0.73116514  0.78354414  0.72861743    -0.03100
C1316       C  0.72364344  0.72736899  0.71867709    -0.03100
C1317       C  0.77190829  0.70821083  0.77758838    -0.03100
C1318       C  0.77310607  0.71716161  0.71885004    -0.03100
C1319       C  0.78095583  0.77410126  0.72862688    -0.03100
C1320       C  0.77936259  0.76523397  0.78709275    -0.03100
C1321       C  0.65543896  0.71335890  0.83149155    -0.20900
C1322       C  0.68373675  0.68859091  0.79824600    -0.07400
C1323       C  0.67195116  0.63915548  0.78524310     0.13400
C1324       C  0.64334926  0.61459888  0.81581409    -0.20900
C1325       C  0.62091727  0.63856432  0.85450291    -0.07400
C1326       C  0.62511635  0.68968197  0.86047178     0.13400
C1327       C  0.59708692  0.72036819  0.89544861    -0.24300
H1328       H  0.65445330  0.75245236  0.83255963     0.14700
H1329       H  0.63741148  0.57612839  0.80784010     0.14700
C1330       C  0.68418311  0.60957841  0.73909977    -0.24200
H1331       H  0.60350660  0.76013873  0.89270910     0.04900
H1332       H  0.60275913  0.71025963  0.93505119     0.08200
H1333       H  0.56336036  0.71493315  0.88573078     0.08200
H1334       H  0.69938307  0.57441142  0.74977635     0.08200
H1335       H  0.70490479  0.62846322  0.71387072     0.08200
H1336       H  0.65532295  0.60062927  0.71738522     0.04900
C1337       C  0.66757596  0.84435021  0.72274687    -0.20900
C1338       C  0.70143974  0.81901933  0.69803948    -0.07400
C1339       C  0.70216333  0.82247271  0.64434287     0.13400
C1340       C  0.67177675  0.85152721  0.61942842    -0.20900
C1341       C  0.63938073  0.87722105  0.64558964    -0.07400
C1342       C  0.63766487  0.87369205  0.69827405     0.13100
C1343       C  0.60216185  0.89725040  0.72903508    -0.24300
H1344       H  0.66022182  0.83692064  0.76110387     0.14700
H1345       H  0.67270410  0.85291157  0.57867405     0.14700
C1346       C  0.73283950  0.79457871  0.61089133    -0.24200
H1347       H  0.60419066  0.88827765  0.76951163     0.04900
H1348       H  0.57119604  0.88411417  0.71517732     0.08200
H1349       H  0.60351876  0.93771956  0.72641208     0.08200
H1350       H  0.75261633  0.76974982  0.63240937     0.08200
H1351       H  0.75329684  0.82040430  0.59050779     0.08200
H1352       H  0.71538155  0.77188811  0.58302120     0.04900
C1353       C  0.83490660  0.60794477  0.65268422    -0.20900
C1354       C  0.86049140  0.63320148  0.61983883    -0.07400
C1355       C  0.85251597  0.68349960  0.61259883     0.13400
C1356       C  0.82151217  0.70765160  0.64218324    -0.20900
C1357       C  0.79885210  0.68431328  0.68051087    -0.07400
C1358       C  0.80451461  0.63199519  0.68303583     0.13400
C1359       C  0.78278589  0.59833255  0.71822708    -0.24300
H1360       H  0.84006220  0.56874477  0.65644854     0.14700
H1361       H  0.81647489  0.74579576  0.63532126     0.14700
C1362       C  0.87757606  0.71294449  0.57562715    -0.24200
H1363       H  0.80651149  0.57752503  0.74019954     0.04900
H1364       H  0.76363746  0.57165802  0.69636306     0.08200
H1365       H  0.76291806  0.61790851  0.74541035     0.08200
H1366       H  0.87274927  0.69833221  0.53682250     0.08200
H1367       H  0.91169072  0.71143859  0.58515856     0.08200
H1368       H  0.86765790  0.75218715  0.57618039     0.04900
C1369       C  0.70235769  0.67939329  0.63655914    -0.20900
C1370       C  0.68947188  0.70741044  0.67992486    -0.07400
C1371       C  0.64444534  0.71116960  0.68796795     0.13400
C1372       C  0.61636826  0.68242856  0.65941993    -0.20900
C1373       C  0.63030888  0.65008909  0.62146792    -0.07400
C1374       C  0.67364490  0.65054578  0.60794272     0.13400
C1375       C  0.68973521  0.61973084  0.56399886    -0.24300
H1376       H  0.73517293  0.67799403  0.62565502     0.14700
H1377       H  0.58271172  0.68441671  0.66794119     0.14700
C1378       C  0.62303851  0.74348211  0.72668767    -0.24200
H1379       H  0.72437462  0.62366268  0.55830867     0.04900
H1380       H  0.67357886  0.63115227  0.52912903     0.08200
H1381       H  0.68319803  0.58050693  0.57055832     0.08200
H1382       H  0.64594916  0.76148574  0.75055226     0.08200
H1383       H  0.60218714  0.72149178  0.75100879     0.08200
H1384       H  0.60331934  0.77161155  0.70800708     0.04900
C1385       C  0.81504744  0.84546364  0.81152368    -0.20900
C1386       C  0.80880800  0.79584290  0.82345478    -0.07400
C1387       C  0.83307677  0.77826001  0.86491097     0.13400
C1388       C  0.86589166  0.80646790  0.88533062    -0.20900
C1389       C  0.87402470  0.85393156  0.86986224    -0.07400
C1390       C  0.84694473  0.87441401  0.83346252     0.13400
C1391       C  0.85097271  0.92673996  0.81724912    -0.24300
H1392       H  0.79590924  0.86165658  0.78283579     0.14700
H1393       H  0.88490895  0.79120479  0.91512818     0.14700
C1394       C  0.82466965  0.73310192  0.89368239    -0.24200
H1395       H  0.82576417  0.93722361  0.79050418     0.04900
H1396       H  0.88179781  0.93168537  0.79787169     0.08200
H1397       H  0.84832449  0.95193998  0.85055941     0.08200
H1398       H  0.85177837  0.70709766  0.88944039     0.08200
H1399       H  0.79551001  0.71621769  0.88269564     0.08200
H1400       H  0.82067660  0.74265485  0.93434104     0.04900
C1401       C  0.82555179  0.60931879  0.86582726    -0.20900
C1402       C  0.86768490  0.61257973  0.85047060    -0.07400
C1403       C  0.87712502  0.63929315  0.80753416     0.13400
C1404       C  0.84473188  0.66586996  0.78417301    -0.20900
C1405       C  0.80259615  0.66891494  0.80221848    -0.07400
C1406       C  0.79263684  0.63479054  0.84114980     0.13400
C1407       C  0.74873853  0.62205136  0.85716996    -0.24300
H1408       H  0.81838340  0.58606483  0.89726751     0.14700
H1409       H  0.85253753  0.68233809  0.74915630     0.14700
C1410       C  0.92164604  0.64032424  0.78678478    -0.24200
H1411       H  0.74844629  0.59773379  0.89013313     0.04900
H1412       H  0.73427006  0.60065912  0.82645268     0.08200
H1413       H  0.72996397  0.65448462  0.86860429     0.08200
H1414       H  0.93248057  0.60252313  0.77647301     0.08200
H1415       H  0.94313470  0.65608618  0.81553354     0.08200
H1416       H  0.92390712  0.66269084  0.75256061     0.04900
C1417       C  0.67436134  0.83192888  0.90678131    -0.20900
C1418       C  0.65934032  0.87574196  0.88660414    -0.07400
C1419       C  0.68263764  0.89487853  0.84581368     0.13400
C1420       C  0.71151069  0.86369298  0.81898149    -0.20900
C1421       C  0.71449603  0.81323168  0.82942567    -0.07400
C1422       C  0.70321535  0.80152404  0.87980413     0.13400
C1423       C  0.71763324  0.75609080  0.90498053    -0.24300
H1424       H  0.66133190  0.81935847  0.94199190     0.14700
H1425       H  0.72647338  0.87721385  0.78544842     0.14700
C1426       C  0.67731175  0.94725790  0.82996255    -0.24200
H1427       H  0.74043236  0.76552734  0.93505919     0.04900
H1428       H  0.73225009  0.73155685  0.87699060     0.08200
H1429       H  0.69059291  0.73678231  0.92210343     0.08200
H1430       H  0.68236044  0.97233599  0.86277677     0.08200
H1431       H  0.64536102  0.95372674  0.81447217     0.08200
H1432       H  0.70057752  0.95658113  0.80023110     0.04900
C1433       C  0.88780527  0.82486250  0.67113785    -0.20900
C1434       C  0.87422677  0.86565961  0.64493341    -0.07400
C1435       C  0.83141990  0.88054299  0.65077347     0.13400
C1436       C  0.80280931  0.85150738  0.67865448    -0.20900
C1437       C  0.81551897  0.80819072  0.70329074    -0.07400
C1438       C  0.86050759  0.79914557  0.70312405     0.13400
C1439       C  0.88327163  0.76696963  0.73877965    -0.24300
H1440       H  0.92123264  0.81512860  0.66969339     0.14700
H1441       H  0.77060032  0.86423756  0.68234619     0.14700
C1442       C  0.81582666  0.92696384  0.62723642    -0.24200
H1443       H  0.90855299  0.78800664  0.75800503     0.04900
H1444       H  0.89827051  0.73570758  0.71764612     0.08200
H1445       H  0.86269337  0.75515959  0.76885998     0.08200
H1446       H  0.82091329  0.92458003  0.58586437     0.08200
H1447       H  0.83340460  0.95869457  0.64288999     0.08200
H1448       H  0.78156281  0.93356224  0.63470955     0.04900
loop_ 
_geom_bond_atom_site_label_1 
_geom_bond_atom_site_label_2 
_geom_bond_distance 
_geom_bond_site_symmetry_2 
_ccdc_geom_bond_type 
N1            N2   1.329       .  A
N1            N7   1.320       .  A
N1        Mn1116   2.249       .  S
N2            C9   1.359       .  A
N3            N5   1.317       .  A
N3            N4   1.323       .  A
N3         Mn200   2.214       .  S
N4           C10   1.353       .  A
N5            N6   1.325       .  A
N5         Mn392   2.229       .  S
N6           C10   1.358       .  A
N7            N8   1.328       .  A
N7         Mn924   2.252       .  S
N8            C9   1.360       .  A
C9          C167   1.509       .  S
C10          C74   1.495       .  S
N11          N17   1.317       .  A
N11          N12   1.324       .  A
N11        Mn765   2.217       .  S
N12          C20   1.355       .  A
N13          N14   1.324       .  A
N13          N15   1.315       .  A
N13        Mn743   2.231       .  S
N14          C21   1.361       .  A
N15          N16   1.321       .  A
N15         Mn41   2.193       .  S
N16          C21   1.351       .  A
N17          N18   1.325       .  A
N17         Mn19   2.238       .  S
N18          C20   1.360       .  A
Mn19        N184   2.208       .  S
Mn19        N912   2.256   1_455  S
Mn19        N737   2.235   1_455  S
Mn19       Cl586   2.549       .  S
C20         C151   1.504       .  S
C21         C122   1.498       .  S
N22          N23   1.328       .  A
N22          N28   1.318       .  A
N22         Mn30   2.257       .  S
N23          C31   1.361       .  A
N24          N26   1.313       .  A
N24          N25   1.315       .  A
N24         Mn42   2.161   1_554  S
N25          C32   1.345       .  A
N26          N27   1.321       .  A
N26        Mn754   2.219       .  S
N27          C32   1.359       .  A
N28          N29   1.325       .  A
N28        Mn766   2.216   1_454  S
N29          C31   1.353       .  A
Mn30       N1087   2.252   1_445  S
Mn30        N367   2.226   1_545  S
Mn30        N750   2.212   1_455  S
Mn30        Cl43   2.560   1_544  S
C31         C106   1.498       .  S
C32          C87   1.479       .  S
N33          N34   1.323       .  A
N33          N39   1.317       .  A
N33        Mn403   2.212   1_545  S
N34          C44   1.354       .  A
N35          N36   1.313       .  A
N35          N37   1.311       .  A
N35        Mn947   2.150   1_455  S
N36          C45   1.345       .  A
N37          N38   1.318       .  A
N37       Mn1127   2.193   1_545  S
N38          C45   1.356       .  A
N39          N40   1.323       .  A
N39        Mn223   2.226       .  S
N40          C44   1.355       .  A
Mn41        N735   2.220       .  S
Mn41        N395   2.216       .  S
Mn41       N1123   2.193       .  S
Mn41      Cl1310   2.559       .  S
Mn42        N752   2.227   1_556  S
Mn42        N940   2.155       .  S
Mn42        N220   2.229       .  S
Mn42       Cl767   2.540   1_545  S
Cl43       Mn562   2.549   1_556  S
Cl43      Mn1308   2.560       .  S
Cl43       Mn766   2.538   1_465  S
C44         C135   1.482       .  S
C45          C58   1.473       .  S
C46          C47   1.606       .  S
C46          C49   1.571       .  S
C46          C50   1.593       .  S
C46          C55   1.567       .  S
C47          C48   1.586       .  S
C47          C53   1.568       .  S
C47         C154   1.582       .  S
C48          C49   1.569       .  S
C48          C52   1.590       .  S
C48          C71   1.584       .  S
C49          C51   1.586       .  S
C49         C103   1.587       .  S
C50          C51   1.588       .  S
C50          C53   1.593       .  S
C50         C138   1.592       .  S
C51          C52   1.595       .  S
C51          C90   1.565       .  S
C52          C53   1.581       .  S
C52         C170   1.599       .  S
C53         C119   1.579       .  S
C54          C55   1.402       .  A
C54          C59   1.395       .  A
C54          H61   1.077       .  S
C55          C56   1.441       .  A
C56          C63   1.498       .  S
C56          C57   1.398       .  A
C57          C58   1.389       .  A
C57          H62   1.087       .  S
C58          C59   1.409       .  A
C59          C60   1.510       .  S
C60          H64   1.111       .  S
C60          H65   1.110       .  S
C60          H66   1.110       .  S
C63          H67   1.111       .  S
C63          H68   1.080       .  S
C63          H69   1.111       .  S
C70          C71   1.416       .  A
C70          C75   1.405       .  A
C70          H77   1.064       .  S
C71          C72   1.432       .  A
C72          C79   1.496       .  S
C72          C73   1.414       .  A
C73          C74   1.402       .  A
C73          H78   1.084       .  S
C74          C75   1.406       .  A
C75          C76   1.510       .  S
C76          H80   1.110       .  S
C76          H81   1.110       .  S
C76          H82   1.110       .  S
C79          H83   1.089       .  S
C79          H84   1.110       .  S
C79          H85   1.110       .  S
C86          C87   1.387       .  A
C86          C91   1.399       .  A
C86          H93   1.087       .  S
C87          C88   1.411       .  A
C88          C95   1.509       .  S
C88          C89   1.402       .  A
C89          C90   1.410       .  A
C89          H94   1.073       .  S
C90          C91   1.442       .  A
C91          C92   1.497       .  S
C92          H96   1.112       .  S
C92          H97   1.111       .  S
C92          H98   1.080       .  S
C95          H99   1.110       .  S
C95         H100   1.110       .  S
C95         H101   1.111       .  S
C102        C103   1.419       .  A
C102        C107   1.421       .  A
C102        H109   1.074       .  S
C103        C104   1.439       .  A
C104        C111   1.493       .  S
C104        C105   1.408       .  A
C105        C106   1.391       .  A
C105        H110   1.086       .  S
C106        C107   1.412       .  A
C107        C108   1.504       .  S
C108        H112   1.111       .  S
C108        H113   1.111       .  S
C108        H114   1.110       .  S
C111        H115   1.084       .  S
C111        H116   1.111       .  S
C111        H117   1.110       .  S
C118        C119   1.413       .  A
C118        C123   1.411       .  A
C118        H125   1.077       .  S
C119        C120   1.436       .  A
C120        C127   1.490       .  S
C120        C121   1.405       .  A
C121        C122   1.393       .  A
C121        H126   1.085       .  S
C122        C123   1.416       .  A
C123        C124   1.507       .  S
C124        H128   1.111       .  S
C124        H129   1.110       .  S
C124        H130   1.110       .  S
C127        H131   1.107       .  S
C127        H132   1.077       .  S
C127        H133   1.111       .  S
C134        C135   1.394       .  A
C134        C139   1.418       .  A
C134        H141   1.084       .  S
C135        C136   1.400       .  A
C136        C143   1.507       .  S
C136        C137   1.404       .  A
C137        C138   1.412       .  A
C137        H142   1.051       .  S
C138        C139   1.446       .  A
C139        C140   1.496       .  S
C140        H144   1.111       .  S
C140        H145   1.100       .  S
C140        H146   1.094       .  S
C143        H147   1.110       .  S
C143        H148   1.111       .  S
C143        H149   1.110       .  S
C150        C151   1.400       .  A
C150        C155   1.407       .  A
C150        H157   1.084       .  S
C151        C152   1.420       .  A
C152        C159   1.507       .  S
C152        C153   1.417       .  A
C153        C154   1.412       .  A
C153        H158   1.081       .  S
C154        C155   1.427       .  A
C155        C156   1.489       .  S
C156        H160   1.109       .  S
C156        H161   1.087       .  S
C156        H162   1.110       .  S
C159        H163   1.110       .  S
C159        H164   1.107       .  S
C159        H165   1.111       .  S
C166        C167   1.393       .  A
C166        C171   1.412       .  A
C166        H173   1.085       .  S
C167        C168   1.418       .  A
C168        C175   1.505       .  S
C168        C169   1.424       .  A
C169        C170   1.419       .  A
C169        H174   1.075       .  S
C170        C171   1.436       .  A
C171        C172   1.488       .  S
C172        H176   1.111       .  S
C172        H177   1.109       .  S
C172        H178   1.089       .  S
C175        H179   1.108       .  S
C175        H180   1.111       .  S
C175        H181   1.110       .  S
N182        N183   1.329       .  A
N182        N188   1.321       .  A
N182      Mn1297   2.253       .  S
N183        C190   1.359       .  A
N184        N186   1.316       .  A
N184        N185   1.321       .  A
N185        C191   1.352       .  A
N186        N187   1.324       .  A
N186       Mn573   2.222       .  S
N187        C191   1.358       .  A
N188        N189   1.327       .  A
N188       Mn743   2.253       .  S
N189        C190   1.360       .  A
C190        C348   1.508       .  S
C191        C255   1.490       .  S
N192        N198   1.317       .  A
N192        N193   1.324       .  A
N192       Mn946   2.212       .  S
N193        C201   1.355       .  A
N194        N195   1.324       .  A
N194        N196   1.315       .  A
N194       Mn924   2.230   1_556  S
N195        C202   1.360       .  A
N196        N197   1.321       .  A
N196       Mn222   2.198       .  S
N197        C202   1.352       .  A
N198        N199   1.325       .  A
N198       Mn200   2.240   1_556  S
N199        C201   1.360       .  A
Mn200       N731   2.254   1_455  S
Mn200       N918   2.236   1_454  S
Mn200      Cl405   2.550   1_554  S
C201        C332   1.504       .  S
C202        C303   1.500       .  S
N203        N204   1.329       .  A
N203        N209   1.318       .  A
N203       Mn211   2.260       .  S
N204        C212   1.362       .  A
N205        N207   1.313       .  A
N205        N206   1.315       .  A
N205       Mn223   2.153       .  S
N206        C213   1.344       .  A
N207        N208   1.322       .  A
N207       Mn935   2.222       .  S
N208        C213   1.360       .  A
N209        N210   1.326       .  A
N209       Mn947   2.222   1_455  S
N210        C212   1.354       .  A
Mn211      N1268   2.249   1_445  S
Mn211       N548   2.227   1_545  S
Mn211       N931   2.213   1_455  S
Mn211      Cl224   2.559   1_545  S
C212        C287   1.503       .  S
C213        C268   1.477       .  S
N214        N215   1.325       .  A
N214        N220   1.317       .  A
N214       Mn584   2.218   1_545  S
N215        C225   1.356       .  A
N216        N217   1.313       .  A
N216        N218   1.311       .  A
N216       Mn766   2.151   1_455  S
N217        C226   1.345       .  A
N218        N219   1.319       .  A
N218      Mn1308   2.200   1_545  S
N219        C226   1.357       .  A
N220        N221   1.323       .  A
N221        C225   1.354       .  A
Mn222       N916   2.211       .  S
Mn222       N576   2.212       .  S
Mn222      N1304   2.195       .  S
Mn222     Cl1129   2.557       .  S
Mn223       N933   2.221       .  S
Mn223       N759   2.145       .  S
Mn223      Cl948   2.538   1_545  S
Cl224      Mn381   2.549       .  S
Cl224     Mn1127   2.559       .  S
Cl224      Mn947   2.539   1_465  S
C225        C316   1.487       .  S
C226        C239   1.475       .  S
C227        C228   1.608       .  S
C227        C230   1.572       .  S
C227        C231   1.597       .  S
C227        C236   1.569       .  S
C228        C229   1.584       .  S
C228        C234   1.568       .  S
C228        C335   1.582       .  S
C229        C230   1.569       .  S
C229        C233   1.589       .  S
C229        C252   1.581       .  S
C230        C232   1.586       .  S
C230        C284   1.592       .  S
C231        C232   1.590       .  S
C231        C234   1.594       .  S
C231        C319   1.597       .  S
C232        C233   1.594       .  S
C232        C271   1.566       .  S
C233        C234   1.580       .  S
C233        C351   1.597       .  S
C234        C300   1.581       .  S
C235        C236   1.405       .  A
C235        C240   1.398       .  A
C235        H242   1.065       .  S
C236        C237   1.441       .  A
C237        C244   1.497       .  S
C237        C238   1.398       .  A
C238        C239   1.388       .  A
C238        H243   1.086       .  S
C239        C240   1.410       .  A
C240        C241   1.510       .  S
C241        H245   1.111       .  S
C241        H246   1.110       .  S
C241        H247   1.110       .  S
C244        H248   1.111       .  S
C244        H249   1.079       .  S
C244        H250   1.111       .  S
C251        C252   1.416       .  A
C251        C256   1.404       .  A
C251        H258   1.068       .  S
C252        C253   1.432       .  A
C253        C260   1.496       .  S
C253        C254   1.412       .  A
C254        C255   1.400       .  A
C254        H259   1.085       .  S
C255        C256   1.405       .  A
C256        C257   1.510       .  S
C257        H261   1.111       .  S
C257        H262   1.110       .  S
C257        H263   1.110       .  S
C260        H264   1.088       .  S
C260        H265   1.110       .  S
C260        H266   1.111       .  S
C267        C268   1.387       .  A
C267        C272   1.399       .  A
C267        H274   1.086       .  S
C268        C269   1.411       .  A
C269        C276   1.510       .  S
C269        C270   1.402       .  A
C270        C271   1.411       .  A
C270        H275   1.069       .  S
C271        C272   1.441       .  A
C272        C273   1.496       .  S
C273        H277   1.112       .  S
C273        H278   1.111       .  S
C273        H279   1.081       .  S
C276        H280   1.110       .  S
C276        H281   1.110       .  S
C276        H282   1.111       .  S
C283        C284   1.419       .  A
C283        C288   1.421       .  A
C283        H290   1.075       .  S
C284        C285   1.440       .  A
C285        C292   1.493       .  S
C285        C286   1.410       .  A
C286        C287   1.392       .  A
C286        H291   1.085       .  S
C287        C288   1.416       .  A
C288        C289   1.505       .  S
C289        H293   1.111       .  S
C289        H294   1.109       .  S
C289        H295   1.110       .  S
C292        H296   1.084       .  S
C292        H297   1.111       .  S
C292        H298   1.110       .  S
C299        C300   1.413       .  A
C299        C304   1.412       .  A
C299        H306   1.077       .  S
C300        C301   1.436       .  A
C301        C308   1.490       .  S
C301        C302   1.406       .  A
C302        C303   1.394       .  A
C302        H307   1.086       .  S
C303        C304   1.416       .  A
C304        C305   1.507       .  S
C305        H309   1.111       .  S
C305        H310   1.110       .  S
C305        H311   1.110       .  S
C308        H312   1.109       .  S
C308        H313   1.073       .  S
C308        H314   1.112       .  S
C315        C316   1.395       .  A
C315        C320   1.418       .  A
C315        H322   1.084       .  S
C316        C317   1.401       .  A
C317        C324   1.507       .  S
C317        C318   1.406       .  A
C318        C319   1.415       .  A
C318        H323   1.057       .  S
C319        C320   1.445       .  A
C320        C321   1.495       .  S
C321        H325   1.111       .  S
C321        H326   1.100       .  S
C321        H327   1.092       .  S
C324        H328   1.110       .  S
C324        H329   1.110       .  S
C324        H330   1.110       .  S
C331        C332   1.400       .  A
C331        C336   1.406       .  A
C331        H338   1.084       .  S
C332        C333   1.420       .  A
C333        C340   1.507       .  S
C333        C334   1.418       .  A
C334        C335   1.413       .  A
C334        H339   1.081       .  S
C335        C336   1.425       .  A
C336        C337   1.488       .  S
C337        H341   1.110       .  S
C337        H342   1.082       .  S
C337        H343   1.111       .  S
C340        H344   1.110       .  S
C340        H345   1.107       .  S
C340        H346   1.111       .  S
C347        C348   1.392       .  A
C347        C352   1.410       .  A
C347        H354   1.085       .  S
C348        C349   1.416       .  A
C349        C356   1.504       .  S
C349        C350   1.426       .  A
C350        C351   1.420       .  A
C350        H355   1.076       .  S
C351        C352   1.436       .  A
C352        C353   1.489       .  S
C353        H357   1.111       .  S
C353        H358   1.110       .  S
C353        H359   1.088       .  S
C356        H360   1.110       .  S
C356        H361   1.111       .  S
C356        H362   1.111       .  S
N363        N364   1.328       .  A
N363        N369   1.320       .  A
N363       Mn754   2.247   1_565  S
N364        C371   1.357       .  A
N365        N367   1.317       .  A
N365        N366   1.323       .  A
N365       Mn562   2.216       .  S
N366        C372   1.354       .  A
N367        N368   1.324       .  A
N368        C372   1.358       .  A
N369        N370   1.329       .  A
N369      Mn1286   2.255       .  S
N370        C371   1.361       .  A
C371        C529   1.508       .  S
C372        C436   1.496       .  S
N373        N379   1.316       .  A
N373        N374   1.324       .  A
N373      Mn1127   2.214       .  S
N374        C382   1.355       .  A
N375        N376   1.324       .  A
N375        N377   1.315       .  A
N375      Mn1105   2.230       .  S
N376        C383   1.361       .  A
N377        N378   1.321       .  A
N377       Mn403   2.195       .  S
N378        C383   1.351       .  A
N379        N380   1.324       .  A
N379       Mn381   2.230       .  S
N380        C382   1.359       .  A
Mn381       N546   2.205       .  S
Mn381      N1274   2.245   1_455  S
Mn381      N1099   2.232   1_455  S
C382        C513   1.501       .  S
C383        C484   1.500       .  S
N384        N385   1.328       .  A
N384        N390   1.318       .  A
N384       Mn392   2.257       .  S
N385        C393   1.361       .  A
N386        N388   1.314       .  A
N386        N387   1.315       .  A
N386       Mn404   2.159   1_554  S
N387        C394   1.345       .  A
N388        N389   1.320       .  A
N388      Mn1116   2.216       .  S
N389        C394   1.358       .  A
N390        N391   1.325       .  A
N390      Mn1128   2.217   1_454  S
N391        C393   1.353       .  A
Mn392       N725   2.255   1_455  S
Mn392      N1112   2.216   1_455  S
Mn392      Cl405   2.561   1_554  S
C393        C468   1.498       .  S
C394        C449   1.475       .  S
N395        N396   1.324       .  A
N395        N401   1.317       .  A
N396        C406   1.354       .  A
N397        N398   1.312       .  A
N397        N399   1.311       .  A
N397      Mn1309   2.141   1_455  S
N398        C407   1.343       .  A
N399        N400   1.319       .  A
N399       Mn765   2.198       .  S
N400        C407   1.358       .  A
N401        N402   1.323       .  A
N401       Mn585   2.228       .  S
N402        C406   1.355       .  A
Mn403      N1097   2.219       .  S
Mn403       N761   2.191   1_565  S
Mn403      Cl948   2.561       .  S
Mn404      N1114   2.220   1_556  S
Mn404      N1302   2.159       .  S
Mn404       N582   2.227       .  S
Mn404     Cl1129   2.543       .  S
Cl405      Mn946   2.560       .  S
Cl405     Mn1128   2.540   1_455  S
C406        C497   1.485       .  S
C407        C420   1.472       .  S
C408        C409   1.605       .  S
C408        C411   1.571       .  S
C408        C412   1.594       .  S
C408        C417   1.566       .  S
C409        C410   1.587       .  S
C409        C415   1.568       .  S
C409        C516   1.579       .  S
C410        C411   1.569       .  S
C410        C414   1.591       .  S
C410        C433   1.586       .  S
C411        C413   1.586       .  S
C411        C465   1.588       .  S
C412        C413   1.586       .  S
C412        C415   1.594       .  S
C412        C500   1.591       .  S
C413        C414   1.595       .  S
C413        C452   1.566       .  S
C414        C415   1.580       .  S
C414        C532   1.597       .  S
C415        C481   1.582       .  S
C416        C417   1.404       .  A
C416        C421   1.397       .  A
C416        H423   1.066       .  S
C417        C418   1.440       .  A
C418        C425   1.495       .  S
C418        C419   1.396       .  A
C419        C420   1.387       .  A
C419        H424   1.086       .  S
C420        C421   1.411       .  A
C421        C422   1.511       .  S
C422        H426   1.111       .  S
C422        H427   1.110       .  S
C422        H428   1.110       .  S
C425        H429   1.111       .  S
C425        H430   1.078       .  S
C425        H431   1.110       .  S
C432        C433   1.415       .  A
C432        C437   1.405       .  A
C432        H439   1.067       .  S
C433        C434   1.433       .  A
C434        C441   1.496       .  S
C434        C435   1.415       .  A
C435        C436   1.402       .  A
C435        H440   1.085       .  S
C436        C437   1.407       .  A
C437        C438   1.510       .  S
C438        H442   1.111       .  S
C438        H443   1.110       .  S
C438        H444   1.110       .  S
C441        H445   1.087       .  S
C441        H446   1.110       .  S
C441        H447   1.111       .  S
C448        C449   1.386       .  A
C448        C453   1.398       .  A
C448        H455   1.087       .  S
C449        C450   1.409       .  A
C450        C457   1.510       .  S
C450        C451   1.400       .  A
C451        C452   1.411       .  A
C451        H456   1.067       .  S
C452        C453   1.444       .  A
C453        C454   1.499       .  S
C454        H458   1.112       .  S
C454        H459   1.111       .  S
C454        H460   1.080       .  S
C457        H461   1.110       .  S
C457        H462   1.110       .  S
C457        H463   1.111       .  S
C464        C465   1.419       .  A
C464        C469   1.420       .  A
C464        H471   1.074       .  S
C465        C466   1.440       .  A
C466        C473   1.494       .  S
C466        C467   1.410       .  A
C467        C468   1.392       .  A
C467        H472   1.086       .  S
C468        C469   1.411       .  A
C469        C470   1.504       .  S
C470        H474   1.111       .  S
C470        H475   1.110       .  S
C470        H476   1.110       .  S
C473        H477   1.086       .  S
C473        H478   1.111       .  S
C473        H479   1.110       .  S
C480        C481   1.413       .  A
C480        C485   1.412       .  A
C480        H487   1.076       .  S
C481        C482   1.436       .  A
C482        C489   1.490       .  S
C482        C483   1.406       .  A
C483        C484   1.394       .  A
C483        H488   1.086       .  S
C484        C485   1.417       .  A
C485        C486   1.507       .  S
C486        H490   1.111       .  S
C486        H491   1.110       .  S
C486        H492   1.110       .  S
C489        H493   1.109       .  S
C489        H494   1.072       .  S
C489        H495   1.112       .  S
C496        C497   1.395       .  A
C496        C501   1.418       .  A
C496        H503   1.084       .  S
C497        C498   1.401       .  A
C498        C505   1.507       .  S
C498        C499   1.404       .  A
C499        C500   1.413       .  A
C499        H504   1.061       .  S
C500        C501   1.444       .  A
C501        C502   1.497       .  S
C502        H506   1.111       .  S
C502        H507   1.100       .  S
C502        H508   1.093       .  S
C505        H509   1.110       .  S
C505        H510   1.110       .  S
C505        H511   1.110       .  S
C512        C513   1.400       .  A
C512        C517   1.405       .  A
C512        H519   1.085       .  S
C513        C514   1.419       .  A
C514        C521   1.507       .  S
C514        C515   1.417       .  A
C515        C516   1.413       .  A
C515        H520   1.081       .  S
C516        C517   1.426       .  A
C517        C518   1.489       .  S
C518        H522   1.110       .  S
C518        H523   1.082       .  S
C518        H524   1.111       .  S
C521        H525   1.110       .  S
C521        H526   1.107       .  S
C521        H527   1.111       .  S
C528        C529   1.393       .  A
C528        C533   1.412       .  A
C528        H535   1.086       .  S
C529        C530   1.415       .  A
C530        C537   1.504       .  S
C530        C531   1.425       .  A
C531        C532   1.418       .  A
C531        H536   1.076       .  S
C532        C533   1.438       .  A
C533        C534   1.490       .  S
C534        H538   1.111       .  S
C534        H539   1.109       .  S
C534        H540   1.087       .  S
C537        H541   1.110       .  S
C537        H542   1.110       .  S
C537        H543   1.111       .  S
N544        N545   1.329       .  A
N544        N550   1.321       .  A
N544       Mn935   2.255   1_565  S
N545        C552   1.359       .  A
N546        N548   1.316       .  A
N546        N547   1.321       .  A
N547        C553   1.351       .  A
N548        N549   1.324       .  A
N549        C553   1.358       .  A
N550        N551   1.328       .  A
N550      Mn1105   2.248       .  S
N551        C552   1.359       .  A
C552        C710   1.508       .  S
C553        C617   1.489       .  S
N554        N560   1.317       .  A
N554        N555   1.324       .  A
N554      Mn1308   2.214       .  S
N555        C563   1.355       .  A
N556        N557   1.324       .  A
N556        N558   1.316       .  A
N556      Mn1286   2.232   1_556  S
N557        C564   1.361       .  A
N558        N559   1.321       .  A
N558       Mn584   2.199       .  S
N559        C564   1.351       .  A
N560        N561   1.325       .  A
N560       Mn562   2.243   1_556  S
N561        C563   1.360       .  A
Mn562      N1093   2.257   1_455  S
Mn562      N1280   2.231   1_454  S
C563        C694   1.505       .  S
C564        C665   1.499       .  S
N565        N566   1.329       .  A
N565        N571   1.318       .  A
N565       Mn573   2.263       .  S
N566        C574   1.363       .  A
N567        N569   1.313       .  A
N567        N568   1.313       .  A
N567       Mn585   2.149       .  S
N568        C575   1.343       .  A
N569        N570   1.320       .  A
N569      Mn1297   2.212       .  S
N570        C575   1.358       .  A
N571        N572   1.326       .  A
N571      Mn1309   2.218   1_455  S
N572        C574   1.354       .  A
Mn573       N906   2.252   1_455  S
Mn573      N1293   2.208   1_455  S
Mn573      Cl586   2.561       .  S
C574        C649   1.502       .  S
C575        C630   1.471       .  S
N576        N577   1.324       .  A
N576        N582   1.317       .  A
N577        C587   1.354       .  A
N578        N579   1.314       .  A
N578        N580   1.312       .  A
N578      Mn1128   2.158   1_455  S
N579        C588   1.346       .  A
N580        N581   1.318       .  A
N580       Mn946   2.194       .  S
N581        C588   1.356       .  A
N582        N583   1.323       .  A
N583        C587   1.355       .  A
Mn584      N1278   2.215       .  S
Mn584       N942   2.198   1_565  S
Mn584      Cl767   2.562       .  S
Mn585      N1295   2.221       .  S
Mn585      N1121   2.142       .  S
Mn585     Cl1310   2.538       .  S
Cl586      Mn765   2.561       .  S
Cl586     Mn1309   2.536   1_455  S
C587        C678   1.485       .  S
C588        C601   1.474       .  S
C589        C590   1.607       .  S
C589        C592   1.572       .  S
C589        C593   1.596       .  S
C589        C598   1.567       .  S
C590        C591   1.586       .  S
C590        C596   1.567       .  S
C590        C697   1.582       .  S
C591        C592   1.570       .  S
C591        C595   1.592       .  S
C591        C614   1.581       .  S
C592        C594   1.585       .  S
C592        C646   1.594       .  S
C593        C594   1.586       .  S
C593        C596   1.592       .  S
C593        C681   1.593       .  S
C594        C595   1.594       .  S
C594        C633   1.560       .  S
C595        C596   1.580       .  S
C595        C713   1.601       .  S
C596        C662   1.579       .  S
C597        C598   1.406       .  A
C597        C602   1.397       .  A
C597        H604   1.056       .  S
C598        C599   1.441       .  A
C599        C606   1.497       .  S
C599        C600   1.399       .  A
C600        C601   1.390       .  A
C600        H605   1.085       .  S
C601        C602   1.409       .  A
C602        C603   1.510       .  S
C603        H607   1.111       .  S
C603        H608   1.110       .  S
C603        H609   1.110       .  S
C606        H610   1.111       .  S
C606        H611   1.080       .  S
C606        H612   1.111       .  S
C613        C614   1.415       .  A
C613        C618   1.403       .  A
C613        H620   1.066       .  S
C614        C615   1.432       .  A
C615        C622   1.497       .  S
C615        C616   1.413       .  A
C616        C617   1.401       .  A
C616        H621   1.085       .  S
C617        C618   1.404       .  A
C618        C619   1.511       .  S
C619        H623   1.111       .  S
C619        H624   1.111       .  S
C619        H625   1.109       .  S
C622        H626   1.089       .  S
C622        H627   1.110       .  S
C622        H628   1.111       .  S
C629        C630   1.386       .  A
C629        C634   1.397       .  A
C629        H636   1.086       .  S
C630        C631   1.409       .  A
C631        C638   1.510       .  S
C631        C632   1.398       .  A
C632        C633   1.409       .  A
C632        H637   1.068       .  S
C633        C634   1.441       .  A
C634        C635   1.497       .  S
C635        H639   1.112       .  S
C635        H640   1.111       .  S
C635        H641   1.081       .  S
C638        H642   1.110       .  S
C638        H643   1.110       .  S
C638        H644   1.111       .  S
C645        C646   1.421       .  A
C645        C650   1.424       .  A
C645        H652   1.078       .  S
C646        C647   1.441       .  A
C647        C654   1.491       .  S
C647        C648   1.409       .  A
C648        C649   1.389       .  A
C648        H653   1.086       .  S
C649        C650   1.413       .  A
C650        C651   1.504       .  S
C651        H655   1.111       .  S
C651        H656   1.111       .  S
C651        H657   1.110       .  S
C654        H658   1.082       .  S
C654        H659   1.111       .  S
C654        H660   1.110       .  S
C661        C662   1.412       .  A
C661        C666   1.412       .  A
C661        H668   1.078       .  S
C662        C663   1.436       .  A
C663        C670   1.490       .  S
C663        C664   1.406       .  A
C664        C665   1.393       .  A
C664        H669   1.085       .  S
C665        C666   1.417       .  A
C666        C667   1.507       .  S
C667        H671   1.111       .  S
C667        H672   1.110       .  S
C667        H673   1.110       .  S
C670        H674   1.107       .  S
C670        H675   1.078       .  S
C670        H676   1.111       .  S
C677        C678   1.395       .  A
C677        C682   1.418       .  A
C677        H684   1.084       .  S
C678        C679   1.401       .  A
C679        C686   1.508       .  S
C679        C680   1.404       .  A
C680        C681   1.413       .  A
C680        H685   1.066       .  S
C681        C682   1.443       .  A
C682        C683   1.496       .  S
C683        H687   1.111       .  S
C683        H688   1.100       .  S
C683        H689   1.095       .  S
C686        H690   1.110       .  S
C686        H691   1.110       .  S
C686        H692   1.110       .  S
C693        C694   1.400       .  A
C693        C698   1.406       .  A
C693        H700   1.084       .  S
C694        C695   1.421       .  A
C695        C702   1.507       .  S
C695        C696   1.418       .  A
C696        C697   1.413       .  A
C696        H701   1.082       .  S
C697        C698   1.426       .  A
C698        C699   1.489       .  S
C699        H703   1.109       .  S
C699        H704   1.086       .  S
C699        H705   1.110       .  S
C702        H706   1.110       .  S
C702        H707   1.107       .  S
C702        H708   1.111       .  S
C709        C710   1.392       .  A
C709        C714   1.412       .  A
C709        H716   1.085       .  S
C710        C711   1.413       .  A
C711        C718   1.504       .  S
C711        C712   1.425       .  A
C712        C713   1.418       .  A
C712        H717   1.074       .  S
C713        C714   1.440       .  A
C714        C715   1.489       .  S
C715        H719   1.112       .  S
C715        H720   1.109       .  S
C715        H721   1.084       .  S
C718        H722   1.110       .  S
C718        H723   1.110       .  S
C718        H724   1.111       .  S
N725        N726   1.329       .  A
N725        N731   1.320       .  A
N726        C733   1.359       .  A
N727        N729   1.316       .  A
N727        N728   1.323       .  A
N727       Mn924   2.213       .  S
N728        C734   1.354       .  A
N729        N730   1.326       .  A
N729      Mn1116   2.233       .  S
N730        C734   1.359       .  A
N731        N732   1.329       .  A
N732        C733   1.360       .  A
C733        C891   1.512       .  S
C734        C798   1.499       .  S
N735        N741   1.317       .  A
N735        N736   1.325       .  A
N736        C744   1.356       .  A
N737        N738   1.326       .  A
N737        N739   1.316       .  A
N738        C745   1.362       .  A
N739        N740   1.320       .  A
N739       Mn765   2.198   1_655  S
N740        C745   1.351       .  A
N741        N742   1.324       .  A
N741       Mn743   2.234       .  S
N742        C744   1.359       .  A
Mn743       N908   2.210       .  S
Mn743     Cl1310   2.549       .  S
C744        C875   1.504       .  S
C745        C846   1.502       .  S
N746        N747   1.330       .  A
N746        N752   1.318       .  A
N746       Mn754   2.260       .  S
N747        C755   1.362       .  A
N748        N750   1.313       .  A
N748        N749   1.314       .  A
N748       Mn766   2.151   1_554  S
N749        C756   1.344       .  A
N750        N751   1.320       .  A
N751        C756   1.358       .  A
N752        N753   1.327       .  A
N753        C755   1.355       .  A
Mn754      N1091   2.231   1_545  S
Mn754      Cl767   2.560   1_544  S
C755        C830   1.506       .  S
C756        C811   1.472       .  S
N757        N758   1.324       .  A
N757        N763   1.317       .  A
N757      Mn1127   2.215   1_645  S
N758        C768   1.355       .  A
N759        N760   1.312       .  A
N759        N761   1.311       .  A
N760        C769   1.343       .  A
N761        N762   1.317       .  A
N762        C769   1.356       .  A
N763        N764   1.323       .  A
N763       Mn947   2.226       .  S
N764        C768   1.354       .  A
Mn765      N1119   2.218   1_455  S
Mn766       N944   2.221       .  S
Cl767     Mn1286   2.553   1_556  S
C768        C859   1.484       .  S
C769        C782   1.469       .  S
C770        C771   1.605       .  S
C770        C773   1.571       .  S
C770        C774   1.595       .  S
C770        C779   1.564       .  S
C771        C772   1.588       .  S
C771        C777   1.569       .  S
C771        C878   1.583       .  S
C772        C773   1.572       .  S
C772        C776   1.594       .  S
C772        C795   1.586       .  S
C773        C775   1.586       .  S
C773        C827   1.596       .  S
C774        C775   1.586       .  S
C774        C777   1.592       .  S
C774        C862   1.591       .  S
C775        C776   1.596       .  S
C775        C814   1.563       .  S
C776        C777   1.582       .  S
C776        C894   1.603       .  S
C777        C843   1.582       .  S
C778        C779   1.405       .  A
C778        C783   1.397       .  A
C778        H785   1.061       .  S
C779        C780   1.439       .  A
C780        C787   1.495       .  S
C780        C781   1.395       .  A
C781        C782   1.387       .  A
C781        H786   1.085       .  S
C782        C783   1.409       .  A
C783        C784   1.510       .  S
C784        H788   1.110       .  S
C784        H789   1.110       .  S
C784        H790   1.110       .  S
C787        H791   1.111       .  S
C787        H792   1.078       .  S
C787        H793   1.110       .  S
C794        C795   1.416       .  A
C794        C799   1.406       .  A
C794        H801   1.066       .  S
C795        C796   1.432       .  A
C796        C803   1.497       .  S
C796        C797   1.416       .  A
C797        C798   1.403       .  A
C797        H802   1.085       .  S
C798        C799   1.407       .  A
C799        C800   1.510       .  S
C800        H804   1.110       .  S
C800        H805   1.110       .  S
C800        H806   1.110       .  S
C803        H807   1.088       .  S
C803        H808   1.110       .  S
C803        H809   1.111       .  S
C810        C811   1.385       .  A
C810        C815   1.397       .  A
C810        H817   1.086       .  S
C811        C812   1.409       .  A
C812        C819   1.510       .  S
C812        C813   1.400       .  A
C813        C814   1.410       .  A
C813        H818   1.066       .  S
C814        C815   1.444       .  A
C815        C816   1.499       .  S
C816        H820   1.112       .  S
C816        H821   1.111       .  S
C816        H822   1.079       .  S
C819        H823   1.110       .  S
C819        H824   1.110       .  S
C819        H825   1.111       .  S
C826        C827   1.422       .  A
C826        C831   1.424       .  A
C826        H833   1.073       .  S
C827        C828   1.440       .  A
C828        C835   1.493       .  S
C828        C829   1.412       .  A
C829        C830   1.393       .  A
C829        H834   1.085       .  S
C830        C831   1.413       .  A
C831        C832   1.504       .  S
C832        H836   1.111       .  S
C832        H837   1.110       .  S
C832        H838   1.110       .  S
C835        H839   1.084       .  S
C835        H840   1.111       .  S
C835        H841   1.110       .  S
C842        C843   1.412       .  A
C842        C847   1.412       .  A
C842        H849   1.078       .  S
C843        C844   1.438       .  A
C844        C851   1.491       .  S
C844        C845   1.408       .  A
C845        C846   1.394       .  A
C845        H850   1.085       .  S
C846        C847   1.418       .  A
C847        C848   1.507       .  S
C848        H852   1.111       .  S
C848        H853   1.110       .  S
C848        H854   1.110       .  S
C851        H855   1.107       .  S
C851        H856   1.077       .  S
C851        H857   1.111       .  S
C858        C859   1.395       .  A
C858        C863   1.418       .  A
C858        H865   1.084       .  S
C859        C860   1.400       .  A
C860        C867   1.507       .  S
C860        C861   1.403       .  A
C861        C862   1.413       .  A
C861        H866   1.062       .  S
C862        C863   1.445       .  A
C863        C864   1.497       .  S
C864        H868   1.111       .  S
C864        H869   1.100       .  S
C864        H870   1.094       .  S
C867        H871   1.110       .  S
C867        H872   1.110       .  S
C867        H873   1.109       .  S
C874        C875   1.400       .  A
C874        C879   1.405       .  A
C874        H881   1.084       .  S
C875        C876   1.420       .  A
C876        C883   1.507       .  S
C876        C877   1.419       .  A
C877        C878   1.414       .  A
C877        H882   1.081       .  S
C878        C879   1.427       .  A
C879        C880   1.488       .  S
C880        H884   1.109       .  S
C880        H885   1.085       .  S
C880        H886   1.110       .  S
C883        H887   1.110       .  S
C883        H888   1.107       .  S
C883        H889   1.111       .  S
C890        C891   1.392       .  A
C890        C895   1.413       .  A
C890        H897   1.085       .  S
C891        C892   1.415       .  A
C892        C899   1.504       .  S
C892        C893   1.427       .  A
C893        C894   1.420       .  A
C893        H898   1.074       .  S
C894        C895   1.440       .  A
C895        C896   1.489       .  S
C896        H900   1.112       .  S
C896        H901   1.109       .  S
C896        H902   1.085       .  S
C899        H903   1.110       .  S
C899        H904   1.110       .  S
C899        H905   1.111       .  S
N906        N907   1.329       .  A
N906        N912   1.321       .  A
N907        C914   1.359       .  A
N908        N910   1.316       .  A
N908        N909   1.323       .  A
N909        C915   1.353       .  A
N910        N911   1.324       .  A
N910      Mn1297   2.224       .  S
N911        C915   1.357       .  A
N912        N913   1.328       .  A
N913        C914   1.360       .  A
C914       C1072   1.511       .  S
C915        C979   1.493       .  S
N916        N922   1.317       .  A
N916        N917   1.323       .  A
N917        C925   1.354       .  A
N918        N919   1.325       .  A
N918        N920   1.315       .  A
N919        C926   1.362       .  A
N920        N921   1.322       .  A
N920       Mn946   2.200   1_655  S
N921        C926   1.352       .  A
N922        N923   1.325       .  A
N922       Mn924   2.237   1_556  S
N923        C925   1.360       .  A
Mn924     Cl1129   2.551   1_554  S
C925       C1056   1.503       .  S
C926       C1027   1.503       .  S
N927        N928   1.328       .  A
N927        N933   1.318       .  A
N927       Mn935   2.262       .  S
N928        C936   1.362       .  A
N929        N931   1.313       .  A
N929        N930   1.314       .  A
N929       Mn947   2.156       .  S
N930        C937   1.345       .  A
N931        N932   1.320       .  A
N932        C937   1.358       .  A
N933        N934   1.326       .  A
N934        C936   1.354       .  A
Mn935      N1272   2.230   1_545  S
Mn935      Cl948   2.560   1_545  S
C936       C1011   1.501       .  S
C937        C992   1.475       .  S
N938        N939   1.323       .  A
N938        N944   1.316       .  A
N938      Mn1308   2.211   1_645  S
N939        C949   1.354       .  A
N940        N941   1.313       .  A
N940        N942   1.312       .  A
N941        C950   1.345       .  A
N942        N943   1.319       .  A
N943        C950   1.357       .  A
N944        N945   1.322       .  A
N945        C949   1.354       .  A
Mn946      N1300   2.211   1_455  S
Cl948     Mn1105   2.548       .  S
C949       C1040   1.481       .  S
C950        C963   1.476       .  S
C951        C952   1.607       .  S
C951        C954   1.572       .  S
C951        C955   1.594       .  S
C951        C960   1.568       .  S
C952        C953   1.587       .  S
C952        C958   1.569       .  S
C952       C1059   1.580       .  S
C953        C954   1.570       .  S
C953        C957   1.592       .  S
C953        C976   1.584       .  S
C954        C956   1.585       .  S
C954       C1008   1.593       .  S
C955        C956   1.587       .  S
C955        C958   1.594       .  S
C955       C1043   1.590       .  S
C956        C957   1.595       .  S
C956        C995   1.563       .  S
C957        C958   1.581       .  S
C957       C1075   1.600       .  S
C958       C1024   1.585       .  S
C959        C960   1.405       .  A
C959        C964   1.399       .  A
C959        H966   1.056       .  S
C960        C961   1.441       .  A
C961        C968   1.497       .  S
C961        C962   1.399       .  A
C962        C963   1.389       .  A
C962        H967   1.085       .  S
C963        C964   1.410       .  A
C964        C965   1.510       .  S
C965        H969   1.110       .  S
C965        H970   1.110       .  S
C965        H971   1.110       .  S
C968        H972   1.111       .  S
C968        H973   1.079       .  S
C968        H974   1.110       .  S
C975        C976   1.415       .  A
C975        C980   1.403       .  A
C975        H982   1.069       .  S
C976        C977   1.433       .  A
C977        C984   1.496       .  S
C977        C978   1.415       .  A
C978        C979   1.401       .  A
C978        H983   1.086       .  S
C979        C980   1.405       .  A
C980        C981   1.510       .  S
C981        H985   1.111       .  S
C981        H986   1.111       .  S
C981        H987   1.109       .  S
C984        H988   1.084       .  S
C984        H989   1.111       .  S
C984        H990   1.111       .  S
C991        C992   1.387       .  A
C991        C996   1.398       .  A
C991        H998   1.086       .  S
C992        C993   1.410       .  A
C993       C1000   1.510       .  S
C993        C994   1.400       .  A
C994        C995   1.411       .  A
C994        H999   1.063       .  S
C995        C996   1.443       .  A
C996        C997   1.499       .  S
C997       H1001   1.112       .  S
C997       H1002   1.111       .  S
C997       H1003   1.080       .  S
C1000      H1004   1.110       .  S
C1000      H1005   1.110       .  S
C1000      H1006   1.111       .  S
C1007      C1008   1.421       .  A
C1007      C1012   1.423       .  A
C1007      H1014   1.074       .  S
C1008      C1009   1.440       .  A
C1009      C1016   1.493       .  S
C1009      C1010   1.409       .  A
C1010      C1011   1.390       .  A
C1010      H1015   1.086       .  S
C1011      C1012   1.413       .  A
C1012      C1013   1.504       .  S
C1013      H1017   1.111       .  S
C1013      H1018   1.110       .  S
C1013      H1019   1.110       .  S
C1016      H1020   1.084       .  S
C1016      H1021   1.111       .  S
C1016      H1022   1.110       .  S
C1023      C1024   1.414       .  A
C1023      C1028   1.415       .  A
C1023      H1030   1.079       .  S
C1024      C1025   1.437       .  A
C1025      C1032   1.490       .  S
C1025      C1026   1.407       .  A
C1026      C1027   1.393       .  A
C1026      H1031   1.086       .  S
C1027      C1028   1.418       .  A
C1028      C1029   1.507       .  S
C1029      H1033   1.111       .  S
C1029      H1034   1.109       .  S
C1029      H1035   1.111       .  S
C1032      H1036   1.108       .  S
C1032      H1037   1.074       .  S
C1032      H1038   1.112       .  S
C1039      C1040   1.395       .  A
C1039      C1044   1.417       .  A
C1039      H1046   1.084       .  S
C1040      C1041   1.399       .  A
C1041      C1048   1.508       .  S
C1041      C1042   1.403       .  A
C1042      C1043   1.412       .  A
C1042      H1047   1.055       .  S
C1043      C1044   1.445       .  A
C1044      C1045   1.496       .  S
C1045      H1049   1.111       .  S
C1045      H1050   1.100       .  S
C1045      H1051   1.094       .  S
C1048      H1052   1.110       .  S
C1048      H1053   1.110       .  S
C1048      H1054   1.110       .  S
C1055      C1056   1.400       .  A
C1055      C1060   1.406       .  A
C1055      H1062   1.084       .  S
C1056      C1057   1.420       .  A
C1057      C1064   1.507       .  S
C1057      C1058   1.416       .  A
C1058      C1059   1.412       .  A
C1058      H1063   1.082       .  S
C1059      C1060   1.426       .  A
C1060      C1061   1.489       .  S
C1061      H1065   1.110       .  S
C1061      H1066   1.085       .  S
C1061      H1067   1.110       .  S
C1064      H1068   1.110       .  S
C1064      H1069   1.108       .  S
C1064      H1070   1.111       .  S
C1071      C1072   1.392       .  A
C1071      C1076   1.412       .  A
C1071      H1078   1.085       .  S
C1072      C1073   1.416       .  A
C1073      C1080   1.504       .  S
C1073      C1074   1.427       .  A
C1074      C1075   1.419       .  A
C1074      H1079   1.075       .  S
C1075      C1076   1.438       .  A
C1076      C1077   1.488       .  S
C1077      H1081   1.111       .  S
C1077      H1082   1.109       .  S
C1077      H1083   1.088       .  S
C1080      H1084   1.110       .  S
C1080      H1085   1.111       .  S
C1080      H1086   1.111       .  S
N1087      N1088   1.330       .  A
N1087      N1093   1.320       .  A
N1088      C1095   1.359       .  A
N1089      N1091   1.316       .  A
N1089      N1090   1.323       .  A
N1089     Mn1286   2.211       .  S
N1090      C1096   1.353       .  A
N1091      N1092   1.324       .  A
N1092      C1096   1.359       .  A
N1093      N1094   1.329       .  A
N1094      C1095   1.361       .  A
C1095      C1253   1.512       .  S
C1096      C1160   1.497       .  S
N1097      N1103   1.317       .  A
N1097      N1098   1.326       .  A
N1098      C1106   1.357       .  A
N1099      N1100   1.325       .  A
N1099      N1101   1.315       .  A
N1100      C1107   1.361       .  A
N1101      N1102   1.321       .  A
N1101     Mn1127   2.198   1_655  S
N1102      C1107   1.351       .  A
N1103      N1104   1.323       .  A
N1103     Mn1105   2.234       .  S
N1104      C1106   1.359       .  A
Mn1105     N1270   2.210       .  S
C1106      C1237   1.503       .  S
C1107      C1208   1.502       .  S
N1108      N1109   1.327       .  A
N1108      N1114   1.319       .  A
N1108     Mn1116   2.251       .  S
N1109      C1117   1.360       .  A
N1110      N1112   1.314       .  A
N1110      N1111   1.315       .  A
N1110     Mn1128   2.156   1_554  S
N1111      C1118   1.344       .  A
N1112      N1113   1.320       .  A
N1113      C1118   1.358       .  A
N1114      N1115   1.325       .  A
N1115      C1117   1.353       .  A
Mn1116    Cl1129   2.560   1_554  S
C1117      C1192   1.496       .  S
C1118      C1173   1.475       .  S
N1119      N1120   1.325       .  A
N1119      N1125   1.317       .  A
N1120      C1130   1.356       .  A
N1121      N1122   1.312       .  A
N1121      N1123   1.311       .  A
N1122      C1131   1.343       .  A
N1123      N1124   1.318       .  A
N1124      C1131   1.356       .  A
N1125      N1126   1.321       .  A
N1125     Mn1309   2.219       .  S
N1126      C1130   1.352       .  A
Mn1128     N1306   2.220       .  S
C1130      C1221   1.482       .  S
C1131      C1144   1.469       .  S
C1132      C1133   1.605       .  S
C1132      C1135   1.571       .  S
C1132      C1136   1.596       .  S
C1132      C1141   1.568       .  S
C1133      C1134   1.588       .  S
C1133      C1139   1.569       .  S
C1133      C1240   1.582       .  S
C1134      C1135   1.570       .  S
C1134      C1138   1.590       .  S
C1134      C1157   1.584       .  S
C1135      C1137   1.585       .  S
C1135      C1189   1.589       .  S
C1136      C1137   1.588       .  S
C1136      C1139   1.593       .  S
C1136      C1224   1.593       .  S
C1137      C1138   1.595       .  S
C1137      C1176   1.566       .  S
C1138      C1139   1.582       .  S
C1138      C1256   1.601       .  S
C1139      C1205   1.581       .  S
C1140      C1141   1.408       .  A
C1140      C1145   1.400       .  A
C1140      H1147   1.053       .  S
C1141      C1142   1.439       .  A
C1142      C1149   1.493       .  S
C1142      C1143   1.396       .  A
C1143      C1144   1.386       .  A
C1143      H1148   1.085       .  S
C1144      C1145   1.409       .  A
C1145      C1146   1.510       .  S
C1146      H1150   1.111       .  S
C1146      H1151   1.110       .  S
C1146      H1152   1.111       .  S
C1149      H1153   1.111       .  S
C1149      H1154   1.078       .  S
C1149      H1155   1.111       .  S
C1156      C1157   1.415       .  A
C1156      C1161   1.405       .  A
C1156      H1163   1.063       .  S
C1157      C1158   1.433       .  A
C1158      C1165   1.496       .  S
C1158      C1159   1.415       .  A
C1159      C1160   1.403       .  A
C1159      H1164   1.085       .  S
C1160      C1161   1.406       .  A
C1161      C1162   1.510       .  S
C1162      H1166   1.110       .  S
C1162      H1167   1.110       .  S
C1162      H1168   1.110       .  S
C1165      H1169   1.088       .  S
C1165      H1170   1.110       .  S
C1165      H1171   1.111       .  S
C1172      C1173   1.386       .  A
C1172      C1177   1.397       .  A
C1172      H1179   1.087       .  S
C1173      C1174   1.409       .  A
C1174      C1181   1.510       .  S
C1174      C1175   1.401       .  A
C1175      C1176   1.411       .  A
C1175      H1180   1.072       .  S
C1176      C1177   1.443       .  A
C1177      C1178   1.497       .  S
C1178      H1182   1.112       .  S
C1178      H1183   1.111       .  S
C1178      H1184   1.079       .  S
C1181      H1185   1.110       .  S
C1181      H1186   1.110       .  S
C1181      H1187   1.111       .  S
C1188      C1189   1.420       .  A
C1188      C1193   1.420       .  A
C1188      H1195   1.074       .  S
C1189      C1190   1.439       .  A
C1190      C1197   1.492       .  S
C1190      C1191   1.408       .  A
C1191      C1192   1.390       .  A
C1191      H1196   1.085       .  S
C1192      C1193   1.411       .  A
C1193      C1194   1.504       .  S
C1194      H1198   1.111       .  S
C1194      H1199   1.110       .  S
C1194      H1200   1.110       .  S
C1197      H1201   1.084       .  S
C1197      H1202   1.111       .  S
C1197      H1203   1.110       .  S
C1204      C1205   1.412       .  A
C1204      C1209   1.411       .  A
C1204      H1211   1.076       .  S
C1205      C1206   1.436       .  A
C1206      C1213   1.491       .  S
C1206      C1207   1.408       .  A
C1207      C1208   1.396       .  A
C1207      H1212   1.085       .  S
C1208      C1209   1.417       .  A
C1209      C1210   1.508       .  S
C1210      H1214   1.111       .  S
C1210      H1215   1.110       .  S
C1210      H1216   1.110       .  S
C1213      H1217   1.110       .  S
C1213      H1218   1.074       .  S
C1213      H1219   1.112       .  S
C1220      C1221   1.393       .  A
C1220      C1225   1.416       .  A
C1220      H1227   1.085       .  S
C1221      C1222   1.400       .  A
C1222      C1229   1.507       .  S
C1222      C1223   1.403       .  A
C1223      C1224   1.413       .  A
C1223      H1228   1.067       .  S
C1224      C1225   1.445       .  A
C1225      C1226   1.497       .  S
C1226      H1230   1.111       .  S
C1226      H1231   1.101       .  S
C1226      H1232   1.090       .  S
C1229      H1233   1.110       .  S
C1229      H1234   1.110       .  S
C1229      H1235   1.110       .  S
C1236      C1237   1.399       .  A
C1236      C1241   1.404       .  A
C1236      H1243   1.084       .  S
C1237      C1238   1.420       .  A
C1238      C1245   1.507       .  S
C1238      C1239   1.419       .  A
C1239      C1240   1.414       .  A
C1239      H1244   1.081       .  S
C1240      C1241   1.427       .  A
C1241      C1242   1.488       .  S
C1242      H1246   1.110       .  S
C1242      H1247   1.080       .  S
C1242      H1248   1.111       .  S
C1245      H1249   1.110       .  S
C1245      H1250   1.107       .  S
C1245      H1251   1.111       .  S
C1252      C1253   1.393       .  A
C1252      C1257   1.412       .  A
C1252      H1259   1.085       .  S
C1253      C1254   1.416       .  A
C1254      C1261   1.504       .  S
C1254      C1255   1.427       .  A
C1255      C1256   1.420       .  A
C1255      H1260   1.075       .  S
C1256      C1257   1.438       .  A
C1257      C1258   1.489       .  S
C1258      H1262   1.112       .  S
C1258      H1263   1.109       .  S
C1258      H1264   1.087       .  S
C1261      H1265   1.110       .  S
C1261      H1266   1.111       .  S
C1261      H1267   1.111       .  S
N1268      N1269   1.328       .  A
N1268      N1274   1.320       .  A
N1269      C1276   1.358       .  A
N1270      N1272   1.316       .  A
N1270      N1271   1.323       .  A
N1271      C1277   1.353       .  A
N1272      N1273   1.324       .  A
N1273      C1277   1.358       .  A
N1274      N1275   1.327       .  A
N1275      C1276   1.359       .  A
C1276      C1434   1.506       .  S
C1277      C1341   1.496       .  S
N1278      N1284   1.317       .  A
N1278      N1279   1.324       .  A
N1279      C1287   1.355       .  A
N1280      N1281   1.324       .  A
N1280      N1282   1.315       .  A
N1281      C1288   1.360       .  A
N1282      N1283   1.321       .  A
N1282     Mn1308   2.199   1_655  S
N1283      C1288   1.352       .  A
N1284      N1285   1.324       .  A
N1284     Mn1286   2.234   1_556  S
N1285      C1287   1.359       .  A
C1287      C1418   1.501       .  S
C1288      C1389   1.500       .  S
N1289      N1290   1.329       .  A
N1289      N1295   1.318       .  A
N1289     Mn1297   2.262       .  S
N1290      C1298   1.362       .  A
N1291      N1293   1.313       .  A
N1291      N1292   1.314       .  A
N1291     Mn1309   2.152       .  S
N1292      C1299   1.344       .  A
N1293      N1294   1.320       .  A
N1294      C1299   1.357       .  A
N1295      N1296   1.326       .  A
N1296      C1298   1.354       .  A
Mn1297    Cl1310   2.560       .  S
C1298      C1373   1.502       .  S
C1299      C1354   1.471       .  S
N1300      N1301   1.323       .  A
N1300      N1306   1.317       .  A
N1301      C1311   1.354       .  A
N1302      N1303   1.315       .  A
N1302      N1304   1.312       .  A
N1303      C1312   1.347       .  A
N1304      N1305   1.318       .  A
N1305      C1312   1.356       .  A
N1306      N1307   1.322       .  A
N1307      C1311   1.353       .  A
C1311      C1402   1.482       .  S
C1312      C1325   1.475       .  S
C1313      C1314   1.605       .  S
C1313      C1316   1.572       .  S
C1313      C1317   1.597       .  S
C1313      C1322   1.572       .  S
C1314      C1315   1.587       .  S
C1314      C1320   1.566       .  S
C1314      C1421   1.579       .  S
C1315      C1316   1.571       .  S
C1315      C1319   1.591       .  S
C1315      C1338   1.582       .  S
C1316      C1318   1.584       .  S
C1316      C1370   1.592       .  S
C1317      C1318   1.586       .  S
C1317      C1320   1.592       .  S
C1317      C1405   1.591       .  S
C1318      C1319   1.593       .  S
C1318      C1357   1.558       .  S
C1319      C1320   1.578       .  S
C1319      C1437   1.599       .  S
C1320      C1386   1.581       .  S
C1321      C1322   1.407       .  A
C1321      C1326   1.399       .  A
C1321      H1328   1.066       .  S
C1322      C1323   1.440       .  A
C1323      C1330   1.498       .  S
C1323      C1324   1.398       .  A
C1324      C1325   1.390       .  A
C1324      H1329   1.086       .  S
C1325      C1326   1.409       .  A
C1326      C1327   1.510       .  S
C1327      H1331   1.111       .  S
C1327      H1332   1.110       .  S
C1327      H1333   1.110       .  S
C1330      H1334   1.111       .  S
C1330      H1335   1.078       .  S
C1330      H1336   1.111       .  S
C1337      C1338   1.414       .  A
C1337      C1342   1.404       .  A
C1337      H1344   1.068       .  S
C1338      C1339   1.432       .  A
C1339      C1346   1.498       .  S
C1339      C1340   1.415       .  A
C1340      C1341   1.403       .  A
C1340      H1345   1.085       .  S
C1341      C1342   1.406       .  A
C1342      C1343   1.510       .  S
C1343      H1347   1.111       .  S
C1343      H1348   1.110       .  S
C1343      H1349   1.109       .  S
C1346      H1350   1.090       .  S
C1346      H1351   1.110       .  S
C1346      H1352   1.110       .  S
C1353      C1354   1.386       .  A
C1353      C1358   1.396       .  A
C1353      H1360   1.087       .  S
C1354      C1355   1.410       .  A
C1355      C1362   1.510       .  S
C1355      C1356   1.399       .  A
C1356      C1357   1.409       .  A
C1356      H1361   1.071       .  S
C1357      C1358   1.439       .  A
C1358      C1359   1.495       .  S
C1359      H1363   1.112       .  S
C1359      H1364   1.111       .  S
C1359      H1365   1.080       .  S
C1362      H1366   1.110       .  S
C1362      H1367   1.110       .  S
C1362      H1368   1.111       .  S
C1369      C1370   1.422       .  A
C1369      C1374   1.424       .  A
C1369      H1376   1.074       .  S
C1370      C1371   1.439       .  A
C1371      C1378   1.491       .  S
C1371      C1372   1.408       .  A
C1372      C1373   1.390       .  A
C1372      H1377   1.086       .  S
C1373      C1374   1.413       .  A
C1374      C1375   1.504       .  S
C1375      H1379   1.111       .  S
C1375      H1380   1.111       .  S
C1375      H1381   1.110       .  S
C1378      H1382   1.083       .  S
C1378      H1383   1.111       .  S
C1378      H1384   1.110       .  S
C1385      C1386   1.414       .  A
C1385      C1390   1.412       .  A
C1385      H1392   1.076       .  S
C1386      C1387   1.435       .  A
C1387      C1394   1.491       .  S
C1387      C1388   1.406       .  A
C1388      C1389   1.394       .  A
C1388      H1393   1.085       .  S
C1389      C1390   1.416       .  A
C1390      C1391   1.508       .  S
C1391      H1395   1.111       .  S
C1391      H1396   1.109       .  S
C1391      H1397   1.111       .  S
C1394      H1398   1.108       .  S
C1394      H1399   1.076       .  S
C1394      H1400   1.112       .  S
C1401      C1402   1.394       .  A
C1401      C1406   1.417       .  A
C1401      H1408   1.085       .  S
C1402      C1403   1.400       .  A
C1403      C1410   1.508       .  S
C1403      C1404   1.403       .  A
C1404      C1405   1.412       .  A
C1404      H1409   1.071       .  S
C1405      C1406   1.443       .  A
C1406      C1407   1.496       .  S
C1407      H1411   1.111       .  S
C1407      H1412   1.100       .  S
C1407      H1413   1.094       .  S
C1410      H1414   1.110       .  S
C1410      H1415   1.110       .  S
C1410      H1416   1.109       .  S
C1417      C1418   1.400       .  A
C1417      C1422   1.405       .  A
C1417      H1424   1.084       .  S
C1418      C1419   1.419       .  A
C1419      C1426   1.507       .  S
C1419      C1420   1.416       .  A
C1420      C1421   1.413       .  A
C1420      H1425   1.080       .  S
C1421      C1422   1.427       .  A
C1422      C1423   1.490       .  S
C1423      H1427   1.109       .  S
C1423      H1428   1.085       .  S
C1423      H1429   1.110       .  S
C1426      H1430   1.110       .  S
C1426      H1431   1.107       .  S
C1426      H1432   1.111       .  S
C1433      C1434   1.391       .  A
C1433      C1438   1.411       .  A
C1433      H1440   1.086       .  S
C1434      C1435   1.413       .  A
C1435      C1442   1.504       .  S
C1435      C1436   1.425       .  A
C1436      C1437   1.419       .  A
C1436      H1441   1.074       .  S
C1437      C1438   1.440       .  A
C1438      C1439   1.489       .  S
C1439      H1443   1.112       .  S
C1439      H1444   1.109       .  S
C1439      H1445   1.084       .  S
C1442      H1446   1.110       .  S
C1442      H1447   1.111       .  S
C1442      H1448   1.111       .  S
