geometry optimzed in LAMMPS
_audit_creation_date              2020-11-30 
_audit_creation_method            'lammps2cif' 
_symmetry_space_group_name_H-M    'P1' 
_symmetry_Int_Tables_number       1 
_symmetry_cell_setting            triclinic 
loop_ 
_symmetry_equiv_pos_as_xyz 
  x,y,z 
_cell_length_a                    41.95079196375659 
_cell_length_b                    41.87531736123166 
_cell_length_c                    41.54360240221711 
_cell_angle_alpha                 89.89456642752603 
_cell_angle_beta                  90.62592682439885 
_cell_angle_gamma                 89.64588595765402 
loop_ 
_atom_site_label 
_atom_site_type_symbol 
_atom_site_fract_x 
_atom_site_fract_y 
_atom_site_fract_z 
_atom_site_charge 
O1          O  0.38839062  0.33361495  0.42098081    -0.86200
O2          O  0.35412938  0.38802005  0.42945704    -0.83240
C3          C  0.34226287  0.41480670  0.42253188     0.97260
O4          O  0.32834543  0.41885431  0.39562097    -0.83280
O5          O  0.37975643  0.42786032  0.35680255    -0.85920
C6          C  0.40550085  0.42095658  0.34308658     1.01790
O7          O  0.41013482  0.39272205  0.33319278    -0.78680
O8          O  0.42019393  0.35880651  0.38867732    -0.78870
C9          C  0.41455969  0.34732760  0.41603786     1.01740
O10         O  0.33768921  0.30726726  0.38341056    -0.86190
O11         O  0.29979003  0.35952494  0.39691667    -0.83260
C12         C  0.28484777  0.36773859  0.37157853     0.97280
O13         O  0.29939898  0.37901440  0.34776175    -0.83290
O14         O  0.34938642  0.39070545  0.30657783    -0.85890
C15         C  0.35901264  0.36549122  0.29280300     1.01760
O16         O  0.37123690  0.34278094  0.30872992    -0.78710
O17         O  0.38525952  0.30501106  0.36173037    -0.78860
C18         C  0.36019962  0.29132384  0.37140717     1.01720
Cr19       Cr  0.34583346  0.34858643  0.40469859     1.93740
Cr20       Cr  0.34064584  0.40121964  0.35280290     1.93210
Cr21       Cr  0.39401532  0.35078350  0.34967768     1.39100
O22         O  0.35973860  0.36649680  0.36859288    -1.23950
O23         O  0.32258902  0.15628502  0.42632008    -0.86200
O24         O  0.37709430  0.19017736  0.43456383    -0.83240
C25         C  0.40370740  0.20204956  0.42802083     0.97260
O26         O  0.40852489  0.21348177  0.40036300    -0.83280
O27         O  0.41863194  0.16002158  0.36494191    -0.85920
C28         C  0.41274893  0.13273100  0.35383537     1.01790
O29         O  0.38502815  0.12583147  0.34395638    -0.78680
O30         O  0.34890671  0.12224032  0.39714706    -0.78870
C31         C  0.33699132  0.13000975  0.42367106     1.01740
O32         O  0.29762425  0.20442646  0.38437429    -0.86190
O33         O  0.34981900  0.24275063  0.39783951    -0.83260
C34         C  0.35920375  0.25627199  0.37239756     0.97280
O35         O  0.37042703  0.24010947  0.34955683    -0.83290
O36         O  0.38353178  0.18750360  0.31161468    -0.85890
C37         C  0.35949579  0.17626609  0.29697813     1.01760
O38         O  0.33689160  0.16364583  0.31222668    -0.78710
O39         O  0.29639289  0.15576322  0.36426240    -0.78860
C40         C  0.28225447  0.18137939  0.37249786     1.01720
Cr41       Cr  0.33837061  0.19729281  0.40769770     1.93740
Cr42       Cr  0.39220677  0.19878532  0.35769958     1.93210
Cr43       Cr  0.34256674  0.14483768  0.35582416     1.39100
O44         O  0.35726089  0.18072727  0.37304220    -1.23950
O45         O  0.14343522  0.21380791  0.42423895    -0.86200
O46         O  0.18142248  0.16161219  0.43280799    -0.83240
C47         C  0.19580400  0.13624376  0.42595434     0.97260
O48         O  0.20815518  0.13262204  0.39864655    -0.83280
O49         O  0.15355520  0.12035937  0.36370582    -0.85920
C50         C  0.12716504  0.12545902  0.34978441     1.01790
O51         O  0.12115748  0.15282692  0.33783213    -0.78680
O52         O  0.11128691  0.18993586  0.39046373    -0.78870
C53         C  0.11674673  0.20098245  0.41812319     1.01740
O54         O  0.19271641  0.24180403  0.38515370    -0.86190
O55         O  0.23286267  0.19131143  0.39751470    -0.83260
C56         C  0.24713587  0.18235224  0.37219912     0.97280
O57         O  0.23173939  0.17086843  0.34863613    -0.83290
O58         O  0.17947775  0.15470056  0.30951712    -0.85890
C59         C  0.17049252  0.17962319  0.29451312     1.01760
O60         O  0.15931622  0.20308009  0.30983644    -0.78710
O61         O  0.14559897  0.24280681  0.36139714    -0.78860
C62         C  0.17030932  0.25702448  0.37178809     1.01720
Cr63       Cr  0.18655888  0.20072825  0.40693205     1.93740
Cr64       Cr  0.19159878  0.14748705  0.35612138     1.93210
Cr65       Cr  0.13714804  0.19635501  0.35143792     1.39100
O66         O  0.17204700  0.18196775  0.37119935    -1.23950
O67         O  0.20977409  0.39320139  0.42325599    -0.86200
O68         O  0.15662032  0.35855136  0.43342529    -0.83240
C69         C  0.12976918  0.34689613  0.42723241     0.97260
O70         O  0.12401469  0.33561004  0.39953945    -0.83280
O71         O  0.11486216  0.38977881  0.36484618    -0.85920
C72         C  0.12105060  0.41629801  0.35221689     1.01790
O73         O  0.14735168  0.41977647  0.33836751    -0.78680
O74         O  0.18220853  0.42653078  0.39335757    -0.78870
C75         C  0.19507422  0.41937122  0.41992295     1.01740
O76         O  0.23490674  0.34438615  0.38289898    -0.86190
O77         O  0.18281268  0.30585550  0.39664054    -0.83260
C78         C  0.17156662  0.29203574  0.37187790     0.97280
O79         O  0.15944165  0.30786111  0.34893705    -0.83290
O80         O  0.14805537  0.36031021  0.30989876    -0.85890
C81         C  0.17334036  0.36877789  0.29563408     1.01760
O82         O  0.19622968  0.38101292  0.31122445    -0.78710
O83         O  0.23545380  0.39339017  0.36372599    -0.78860
C84         C  0.24992136  0.36790835  0.37172452     1.01720
Cr85       Cr  0.19453805  0.35137394  0.40616164     1.93740
Cr86       Cr  0.13937617  0.34988751  0.35660767     1.93210
Cr87       Cr  0.18951781  0.40242438  0.35312579     1.39100
O88         O  0.17505931  0.36715964  0.37132661    -1.23950
O89         O  0.14707543  0.33337562  0.13193791    -0.86200
O90         O  0.18099891  0.38718405  0.12302541    -0.83240
C91         C  0.19229227  0.41412891  0.12961714     0.97260
O92         O  0.20646521  0.41902753  0.15609785    -0.83280
O93         O  0.15535310  0.42858652  0.19357906    -0.85920
C94         C  0.12921642  0.42207403  0.20641204     1.01790
O95         O  0.12423684  0.39428800  0.21679546    -0.78680
O96         O  0.11507463  0.36038119  0.16244508    -0.78870
C97         C  0.12078774  0.34752025  0.13578997     1.01740
O98         O  0.19778823  0.30702041  0.17059941    -0.86190
O99         O  0.23539349  0.35893672  0.15587581    -0.83260
C100        C  0.25035926  0.36755826  0.18093064     0.97280
O101        O  0.23580995  0.37943813  0.20456625    -0.83290
O102        O  0.18510201  0.39233765  0.24551077    -0.85890
C103        C  0.17430134  0.36811118  0.26008634     1.01760
O104        O  0.16190928  0.34522964  0.24459573    -0.78710
O105        O  0.14963145  0.30636300  0.19096436    -0.78860
C106        C  0.17461999  0.29175318  0.18189667     1.01720
Cr107      Cr  0.18952346  0.34817589  0.14832146     1.93740
Cr108      Cr  0.19432423  0.40184640  0.19900414     1.93210
Cr109      Cr  0.14056027  0.35229885  0.20220257     1.39100
O110        O  0.17541091  0.36697550  0.18387016    -1.23950
O111        O  0.32819459  0.39153281  0.12942126    -0.86200
O112        O  0.37995346  0.35409270  0.12067399    -0.83240
C113        C  0.40733074  0.34354434  0.12738119     0.97260
O114        O  0.41312291  0.33213553  0.15510870    -0.83280
O115        O  0.42048892  0.38511901  0.19225004    -0.85920
C116        C  0.41453288  0.41148086  0.20560130     1.01790
O117        O  0.38741561  0.41602928  0.21743838    -0.78680
O118        O  0.35452964  0.42378199  0.16098173    -0.78870
C119        C  0.34266713  0.41760681  0.13373499     1.01740
O120        O  0.30009060  0.34326385  0.16940341    -0.86190
O121        O  0.35076874  0.30208516  0.15683025    -0.83260
C122        C  0.36160355  0.28765626  0.18160336     0.97280
O123        O  0.37508663  0.30302688  0.20399208    -0.83290
O124        O  0.38500609  0.35495278  0.24398392    -0.85890
C125        C  0.35986426  0.36489352  0.25760305     1.01760
O126        O  0.33744888  0.37772443  0.24165030    -0.78710
O127        O  0.30005373  0.39212054  0.18851611    -0.78860
C128        C  0.28531110  0.36705763  0.18058264     1.01720
Cr129      Cr  0.34126410  0.34861756  0.14709418     1.93740
Cr130      Cr  0.39551623  0.34529427  0.19782800     1.93210
Cr131      Cr  0.34578520  0.39937328  0.20050676     1.39100
O132        O  0.36040422  0.36374304  0.18232100    -1.23950
O133        O  0.18142985  0.15990637  0.12083491    -0.86200
O134        O  0.14821297  0.21499497  0.12827237    -0.83240
C135        C  0.12094767  0.20391831  0.13344398     0.97260
O136        O  0.11394369  0.19268903  0.16044388    -0.83280
O137        O  0.11873134  0.15645497  0.21352997    -0.85920
C138        C  0.12264774  0.12932113  0.20094494     1.01790
O139        O  0.14954594  0.12140658  0.19012498    -0.78680
O140        O  0.20413638  0.12800296  0.15577498    -0.78870
C141        C  0.19307350  0.13294855  0.12779802     1.01740
O142        O  0.23434595  0.18650630  0.15726832    -0.86190
O143        O  0.19698410  0.24058018  0.16936768    -0.83260
C144        C  0.17427208  0.25655175  0.18127299     0.97280
O145        O  0.14911427  0.24292708  0.19032420    -0.83290
O146        O  0.15980910  0.20329546  0.24312424    -0.85890
C147        C  0.17037630  0.17954923  0.25880811     1.01760
O148        O  0.17871015  0.15430574  0.24424190    -0.78710
O149        O  0.23217332  0.16583767  0.20590031    -0.78860
C150        C  0.24817201  0.17707872  0.18284491     1.01720
Cr151      Cr  0.18918040  0.19905582  0.14708116     1.93740
Cr152      Cr  0.13844238  0.19776925  0.20047176     1.92710
Cr153      Cr  0.18981606  0.14541358  0.19801497     1.39100
O154        O  0.17291427  0.18120625  0.18229558    -1.23950
O155        O  0.38675331  0.20881177  0.13304835    -0.86200
O156        O  0.35212429  0.15504593  0.12549520    -0.83240
C157        C  0.33972419  0.12866934  0.13231335     0.97260
O158        O  0.32431019  0.12605401  0.15802838    -0.83280
O159        O  0.37769498  0.11481995  0.19386525    -0.85920
C160        C  0.40447052  0.12007177  0.20661925     1.01790
O161        O  0.41025585  0.14710172  0.21904053    -0.78680
O162        O  0.41917768  0.18288128  0.16511966    -0.78870
C163        C  0.41332457  0.19538868  0.13809807     1.01740
O164        O  0.33788659  0.23715257  0.17044424    -0.86190
O165        O  0.29823206  0.18473750  0.15823761    -0.83260
C166        C  0.28346980  0.17660420  0.18352276     0.97280
O167        O  0.29860779  0.16554475  0.20753973    -0.83290
O168        O  0.35014004  0.15047001  0.24726139    -0.85890
C169        C  0.35981147  0.17535407  0.26157361     1.01760
O170        O  0.37252890  0.19784291  0.24610946    -0.78710
O171        O  0.38545218  0.23712018  0.19359291    -0.78860
C172        C  0.36109587  0.25216267  0.18275728     1.01720
Cr173      Cr  0.34441760  0.19493773  0.14973847     1.93740
Cr174      Cr  0.33927360  0.14205696  0.20080083     1.93210
Cr175      Cr  0.39404099  0.19048565  0.20453724     1.39100
O176        O  0.35870301  0.17656707  0.18573074    -1.23950
C177        C  0.01852023  0.00514467  0.20750326    -0.00280
C178        C  0.01635219  0.03828942  0.20954120    -0.00290
C179        C  0.01610799  0.00708022  0.34496019    -0.00280
C180        C  0.01780069  0.04048169  0.34702551    -0.00290
C181        C  0.19478669  0.02306200  0.00869175    -0.00280
C182        C  0.19009820  0.02330294  0.04203154    -0.00290
C183        C  0.01451370  0.19274493  0.01211691    -0.00280
C184        C  0.01532074  0.18956999  0.04519731    -0.00290
C185        C  0.34539888  0.02444588  0.01008930    -0.00280
C186        C  0.35027628  0.02199538  0.04309433    -0.00290
C187        C  0.01764336  0.34844790  0.00924905    -0.00280
C188        C  0.01762921  0.34949046  0.04244629    -0.00290
C189        C  0.36154883  0.10449720  0.08228108    -0.10000
C190        C  0.34298543  0.10124913  0.11003306     0.06190
C191        C  0.33067224  0.07083047  0.11713084    -0.03770
C192        C  0.32994156  0.04754014  0.09326006    -0.08220
C193        C  0.34810651  0.05062666  0.06506290     0.05310
C194        C  0.36663094  0.07854488  0.06178097    -0.03250
Br195      Br  0.40473357  0.07992683  0.03704981    -0.02940
H196        H  0.37475783  0.12625857  0.07820879     0.09220
H197        H  0.31771539  0.02544051  0.09840096     0.07240
Br198      Br  0.32287552  0.05635986  0.16035048    -0.03370
C199        C  0.45919031  0.16772284  0.11289482    -0.10000
C200        C  0.43744847  0.19338122  0.11223191     0.06190
C201        C  0.43909483  0.21561856  0.08664708    -0.03770
C202        C  0.46300753  0.21255127  0.06354458    -0.08220
C203        C  0.48548238  0.18762559  0.06489492     0.05310
C204        C  0.48283515  0.16464747  0.08965540    -0.03250
Br205      Br  0.01101701  0.12849268  0.09314936    -0.02940
H206        H  0.45790224  0.14984205  0.13172299     0.09220
H207        H  0.46511571  0.23066065  0.04535728     0.07240
Br208      Br  0.41140135  0.25218701  0.08303083    -0.03370
C209        C  0.47021660  0.06508553  0.23729876    -0.10000
C210        C  0.48398108  0.05422453  0.20854666     0.06190
C211        C  0.46831840  0.06164396  0.17909681    -0.03770
C212        C  0.44186381  0.08249616  0.17861015    -0.08220
C213        C  0.42934302  0.09460134  0.20736491     0.05310
C214        C  0.44202527  0.08338217  0.23667103    -0.03250
Br215      Br  0.41815085  0.08861796  0.27517519    -0.02940
H216        H  0.48088649  0.05847138  0.26024634     0.09220
H217        H  0.43163445  0.08995187  0.15572033     0.07240
Br218      Br  0.48419052  0.04646207  0.13881534    -0.03370
C219        C  0.04282383  0.21574909  0.09119352    -0.10000
C220        C  0.04499314  0.19430876  0.06514118     0.06190
C221        C  0.07359205  0.17672499  0.06154831    -0.03770
C222        C  0.09950518  0.18263604  0.08225193    -0.08220
C223        C  0.09661890  0.20391197  0.10808356     0.05310
C224        C  0.06796596  0.22024811  0.11273633    -0.03250
Br225      Br  0.06174530  0.24711705  0.14969843    -0.02940
H226        H  0.02065431  0.22790773  0.09590476     0.09220
H227        H  0.12109090  0.16866143  0.07986063     0.07240
Br228      Br  0.07685883  0.14025385  0.03404678    -0.03370
C229        C  0.21603719  0.05637409  0.08410867    -0.10000
C230        C  0.19147029  0.05344800  0.06123374     0.06190
C231        C  0.16812791  0.07790292  0.05903726    -0.03770
C232        C  0.16981110  0.10443812  0.07972642    -0.08220
C233        C  0.19390142  0.10671295  0.10350699     0.05310
C234        C  0.21717718  0.08226106  0.10518859    -0.03250
Br235      Br  0.25116568  0.08238062  0.13597020    -0.02940
H236        H  0.23412184  0.03784686  0.08608455     0.09220
H237        H  0.15131385  0.12244637  0.07824328     0.07240
Br238      Br  0.13250087  0.07454729  0.02991532    -0.03370
C239        C  0.10106403  0.07691003  0.21658076    -0.10000
C240        C  0.09616749  0.10599363  0.20107737     0.06190
C241        C  0.06533909  0.11317975  0.18935468    -0.03770
C242        C  0.04084141  0.09073758  0.19192821    -0.08220
C243        C  0.04489624  0.06134181  0.20846975     0.05310
C244        C  0.07568622  0.05623391  0.22260704    -0.03250
Br245      Br  0.08545102  0.02746362  0.25622991    -0.02940
H246        H  0.12424590  0.07196705  0.22736261     0.09220
H247        H  0.01826434  0.09718938  0.18105709     0.07240
Br248      Br  0.05465857  0.15305677  0.16939879    -0.03370
C249        C  0.45914728  0.32351990  0.10756171    -0.10000
C250        C  0.43326797  0.34423282  0.10303986     0.06190
C251        C  0.43428183  0.36606730  0.07691112    -0.03770
C252        C  0.46131708  0.36749222  0.05713395    -0.08220
C253        C  0.48755476  0.34691539  0.06217887     0.05310
C254        C  0.48560427  0.32454150  0.08764368    -0.03250
Br255      Br  0.01719883  0.29294512  0.09606103    -0.02940
H256        H  0.45887929  0.30610339  0.12688772     0.09220
H257        H  0.46212915  0.38537619  0.03831862     0.07240
Br258      Br  0.40069206  0.39584639  0.06769737    -0.03370
C259        C  0.37066566  0.46390186  0.11024221    -0.10000
C260        C  0.34627499  0.44127931  0.10727376     0.06190
C261        C  0.32756631  0.44149667  0.07877100    -0.03770
C262        C  0.33002745  0.46687939  0.05691619    -0.08220
C263        C  0.35305901  0.49076328  0.06104433     0.05310
C264        C  0.37499321  0.48746392  0.08698426    -0.03250
Br265      Br  0.41114009  0.01474491  0.09275933    -0.02940
H266        H  0.38697254  0.46305510  0.13064334     0.09220
H267        H  0.31357336  0.46803408  0.03689104     0.07240
Br268      Br  0.29923664  0.40776012  0.06729406    -0.03370
C269        C  0.46503096  0.43389669  0.18556594    -0.10000
C270        C  0.43945181  0.43691296  0.20660164     0.06190
C271        C  0.43867452  0.46402282  0.22698260    -0.03770
C272        C  0.46415862  0.48584655  0.22719627    -0.08220
C273        C  0.48965861  0.48318114  0.20548807     0.05310
C274        C  0.48931010  0.45642498  0.18447842    -0.03250
Br275      Br  0.02110253  0.44742711  0.15336599    -0.02940
H276        H  0.46611034  0.41378924  0.16921033     0.09220
H277        H  0.46428928  0.50423245  0.24529644     0.07240
Br278      Br  0.40396089  0.47295409  0.25525948    -0.03370
C279        C  0.07453721  0.37478225  0.10885087    -0.10000
C280        C  0.09681300  0.34939330  0.10921341     0.06190
C281        C  0.09625809  0.32745357  0.08335722    -0.03770
C282        C  0.07212003  0.32958769  0.05998822    -0.08220
C283        C  0.04781500  0.35252747  0.06189703     0.05310
C284        C  0.05074533  0.37672673  0.08495224    -0.03250
Br285      Br  0.02439419  0.41407247  0.08152437    -0.02940
H286        H  0.07584783  0.39338093  0.12690017     0.09220
H287        H  0.07153099  0.31249708  0.04093222     0.07240
Br288      Br  0.12579386  0.29247585  0.07923316    -0.03370
C289        C  0.17280620  0.46795172  0.11432133    -0.10000
C290        C  0.18924854  0.44012626  0.10619856     0.06190
C291        C  0.20230895  0.43758792  0.07574195    -0.03770
C292        C  0.20363908  0.46451657  0.05625292    -0.08220
C293        C  0.18673902  0.49307337  0.06289793     0.05310
C294        C  0.16936059  0.49316566  0.09230173    -0.03250
Br295      Br  0.13881768  0.02503951  0.10435438    -0.02940
H296        H  0.16156675  0.46952744  0.13751598     0.09220
H297        H  0.21943987  0.46204953  0.03686028     0.07240
Br298      Br  0.21886887  0.39795873  0.05971391    -0.03370
C299        C  0.10030119  0.47059355  0.18582756    -0.10000
C300        C  0.10366782  0.44648185  0.20923370     0.06190
C301        C  0.08038305  0.44382217  0.23321792    -0.03770
C302        C  0.05354594  0.46372992  0.23240238    -0.08220
C303        C  0.04960464  0.48742707  0.20856043     0.05310
C304        C  0.07351999  0.49081852  0.18508098    -0.03250
Br305      Br  0.06814366  0.01838821  0.14845539    -0.02940
H306        H  0.11739246  0.47239765  0.16673462     0.09220
H307        H  0.03549459  0.46088367  0.25054576     0.07240
Br308      Br  0.08452109  0.41341309  0.26777272    -0.03370
C309        C  0.07839934  0.32608345  0.44478732    -0.10000
C310        C  0.10407872  0.34598770  0.45155289     0.06190
C311        C  0.10247852  0.36568585  0.47914627    -0.03770
C312        C  0.07393757  0.36770716  0.49654833    -0.08220
C313        C  0.04798926  0.34738317  0.48973253     0.05310
C314        C  0.05121914  0.32623576  0.46337255    -0.03250
Br315      Br  0.02057057  0.29608954  0.44950927    -0.02940
H316        H  0.07931165  0.30992587  0.42445060     0.09220
H317        H  0.07244129  0.38495505  0.51581285     0.07240
Br318      Br  0.13843398  0.38842556  0.49609716    -0.03370
C319        C  0.07257204  0.44167911  0.37597961    -0.10000
C320        C  0.09723193  0.44286259  0.35328950     0.06190
C321        C  0.09831733  0.46958399  0.33251796    -0.03770
C322        C  0.07250672  0.49094373  0.33133476    -0.08220
C323        C  0.04644531  0.48828696  0.35190161     0.05310
C324        C  0.04840547  0.46497528  0.37646689    -0.03250
Br325      Br  0.01864346  0.46338908  0.41077686    -0.02940
H326        H  0.07198851  0.42252825  0.39352112     0.09220
H327        H  0.07223983  0.50941389  0.31377954     0.07240
Br328      Br  0.13343780  0.47815769  0.30446270    -0.03370
C329        C  0.22262256  0.45167643  0.46107003    -0.10000
C330        C  0.19390832  0.44201599  0.44677655     0.06190
C331        C  0.16488723  0.45599332  0.45686696    -0.03770
C332        C  0.16512964  0.48006794  0.48018417    -0.08220
C333        C  0.19417082  0.49216172  0.49151787     0.05310
C334        C  0.22292734  0.47749705  0.48219347    -0.03250
Br335      Br  0.26241017  0.49085288  0.50064688    -0.02940
H336        H  0.24498158  0.44078125  0.45403338     0.09220
H337        H  0.14299221  0.49163948  0.48682548     0.07240
Br338      Br  0.12478620  0.44623336  0.43701097    -0.03370
C339        C  0.05972059  0.07273979  0.31894220    -0.10000
C340        C  0.04979838  0.05732453  0.34719518     0.06190
C341        C  0.06923275  0.06059474  0.37498204    -0.03770
C342        C  0.09664894  0.07994494  0.37419732    -0.08220
C343        C  0.10296817  0.09947296  0.34737274     0.05310
C344        C  0.08416893  0.09534035  0.31945484    -0.03250
Br345      Br  0.08947289  0.12120748  0.28189366    -0.02940
H346        H  0.04690893  0.06876342  0.29658293     0.09220
H347        H  0.11107421  0.08232124  0.39584564     0.07240
Br348      Br  0.05820310  0.04151571  0.41519315    -0.03370
C349        C  0.19102407  0.07959842  0.43458538    -0.10000
C350        C  0.19673049  0.10912724  0.44815481     0.06190
C351        C  0.20588183  0.11092028  0.48054039    -0.03770
C352        C  0.20806709  0.08284375  0.49891371    -0.08220
C353        C  0.19909680  0.05250820  0.48659685     0.05310
C354        C  0.19378953  0.05165835  0.45222504    -0.03250
Br355      Br  0.19593692  0.01673729  0.42235316    -0.02940
H356        H  0.18554716  0.07824094  0.40901468     0.09220
H357        H  0.21804794  0.08560183  0.52254145     0.07240
Br358      Br  0.21709426  0.15069317  0.50032659    -0.03370
C359        C  0.08932008  0.22159647  0.46787550    -0.10000
C360        C  0.09163846  0.19852529  0.44338623     0.06190
C361        C  0.06940097  0.17320975  0.44345777    -0.03770
C362        C  0.04615283  0.17127645  0.46710933    -0.08220
C363        C  0.04359233  0.19425398  0.49132998     0.05310
C364        C  0.06511996  0.21995742  0.49111164    -0.03250
Br365      Br  0.05992464  0.25500322  0.51940050    -0.02940
H366        H  0.10541819  0.24172426  0.46811357     0.09220
H367        H  0.02928429  0.15177494  0.46625256     0.07240
Br368      Br  0.06851872  0.13988244  0.41235251    -0.03370
C369        C  0.31621862  0.10311229  0.47347201    -0.10000
C370        C  0.34074940  0.10809707  0.45128418     0.06190
C371        C  0.36897888  0.09019983  0.45450213    -0.03770
C372        C  0.36965153  0.06300250  0.47344069    -0.08220
C373        C  0.34451401  0.05620998  0.49409566     0.05310
C374        C  0.31855755  0.07789092  0.49585273    -0.03250
Br375      Br  0.28402244  0.07140916  0.52468005    -0.02940
H376        H  0.29481389  0.11769732  0.47245957     0.09220
H377        H  0.39063210  0.04774849  0.47328443     0.07240
Br378      Br  0.40860710  0.10502866  0.43843087    -0.03370
C379        C  0.43855174  0.08095814  0.36996592    -0.10000
C380        C  0.43896464  0.10903393  0.35158242     0.06190
C381        C  0.46513275  0.11448136  0.33172080    -0.03770
C382        C  0.48847114  0.09079939  0.32843300    -0.08220
C383        C  0.48959467  0.06334723  0.34848441     0.05310
C384        C  0.46534990  0.06078074  0.37181198    -0.03250
Br385      Br  0.46663096  0.03020263  0.40617499    -0.02940
H386        H  0.41778709  0.07505350  0.38369530     0.09220
H387        H  0.50554080  0.09492307  0.30997057     0.07240
Br388      Br  0.46857854  0.15257884  0.30612165    -0.03370
C389        C  0.48077957  0.22139618  0.47192347    -0.10000
C390        C  0.48389683  0.19564371  0.49336466     0.06190
C391        C  0.45972314  0.17249466  0.49366952    -0.03770
C392        C  0.43210390  0.17698603  0.47484147    -0.08220
C393        C  0.42985851  0.20202140  0.45228102     0.05310
C394        C  0.45475656  0.22435686  0.45090991    -0.03250
Br395      Br  0.45500219  0.25893829  0.42037378    -0.02940
H396        H  0.49959726  0.23865237  0.47074447     0.09220
H397        H  0.41334214  0.15952043  0.47620401     0.07240
Br398      Br  0.46575920  0.13199445  0.01428373    -0.03370
C399        C  0.32514541  0.46875545  0.43891208    -0.10000
C400        C  0.34392111  0.44188103  0.44561421     0.06190
C401        C  0.36502538  0.44301828  0.47236088    -0.03770
C402        C  0.36583940  0.47012882  0.49214396    -0.08220
C403        C  0.34515416  0.49632710  0.48694818     0.05310
C404        C  0.32605013  0.49588523  0.45815956    -0.03250
Br405      Br  0.29952146  0.52986329  0.44113841    -0.02940
H406        H  0.30952137  0.46895726  0.41796293     0.09220
H407        H  0.38326089  0.47071154  0.51150210     0.07240
Br408      Br  0.39453799  0.40942775  0.48283208    -0.03370
C409        C  0.43978393  0.32615890  0.46639141    -0.10000
C410        C  0.43860972  0.34960853  0.44227354     0.06190
C411        C  0.46013812  0.37525947  0.44407017    -0.03770
C412        C  0.48427180  0.37532090  0.46751531    -0.08220
C413        C  0.48737173  0.35028430  0.48986156     0.05310
C414        C  0.46401721  0.32606120  0.48980151    -0.03250
Br415      Br  0.46681216  0.28928949  0.51682409    -0.02940
H416        H  0.42284117  0.30674270  0.46599003     0.09220
H417        H  0.50133400  0.39464902  0.46777316     0.07240
Br418      Br  0.45605777  0.41203559  0.41686586    -0.03370
C419        C  0.45433927  0.49849492  0.33532691    -0.10000
C420        C  0.48606102  0.48655865  0.33700154     0.06190
C421        C  0.48838791  0.45294456  0.33147999    -0.03770
C422        C  0.46214987  0.43297962  0.33407394    -0.08220
C423        C  0.43156835  0.44487013  0.33912503     0.05310
C424        C  0.42751362  0.47837576  0.33833252    -0.03250
Br425      Br  0.38618430  0.49818237  0.33956321    -0.02940
H426        H  0.44944088  0.52312286  0.33053036     0.09220
H427        H  0.46586441  0.40748192  0.33143636     0.07240
Br428      Br  0.02334312  0.43131517  0.31248249    -0.03370
O429        O  0.38839052  0.33361496  0.92098086    -0.86200
O430        O  0.35412924  0.38802003  0.92945707    -0.83240
C431        C  0.34226272  0.41480667  0.92253190     0.97260
O432        O  0.32834528  0.41885427  0.89562099    -0.83280
O433        O  0.37975632  0.42786030  0.85680264    -0.85920
C434        C  0.40550076  0.42095658  0.84308669     1.01790
O435        O  0.41013474  0.39272207  0.83319286    -0.78680
O436        O  0.42019382  0.35880654  0.88867739    -0.78870
C437        C  0.41455958  0.34732763  0.91603792     1.01740
O438        O  0.33768915  0.30726722  0.88341059    -0.86190
O439        O  0.29978992  0.35952488  0.89691666    -0.83260
C440        C  0.28484765  0.36773855  0.87157853     0.97280
O441        O  0.29939887  0.37901437  0.84776175    -0.83290
O442        O  0.34938638  0.39070544  0.80657787    -0.85890
C443        C  0.35901264  0.36549122  0.79280303     1.01760
O444        O  0.37123688  0.34278094  0.80872996    -0.78710
O445        O  0.38525948  0.30501106  0.86173042    -0.78860
C446        C  0.36019959  0.29132382  0.87140720     1.01720
Cr447      Cr  0.34583335  0.34858640  0.90469862     1.93740
Cr448      Cr  0.34064574  0.40121961  0.85280293     1.93210
Cr449      Cr  0.39401526  0.35078351  0.84967774     1.39100
O450        O  0.35973850  0.36649677  0.86859291    -1.23950
O451        O  0.32258903  0.15628498  0.92632009    -0.86200
O452        O  0.37709431  0.19017731  0.93456384    -0.83240
C453        C  0.40370742  0.20204952  0.92802084     0.97260
O454        O  0.40852490  0.21348173  0.90036302    -0.83280
O455        O  0.41863195  0.16002155  0.86494191    -0.85920
C456        C  0.41274893  0.13273097  0.85383537     1.01790
O457        O  0.38502816  0.12583144  0.84395638    -0.78680
O458        O  0.34890672  0.12224029  0.89714705    -0.78870
C459        C  0.33699134  0.13000972  0.92367106     1.01740
O460        O  0.29762426  0.20442643  0.88437431    -0.86190
O461        O  0.34981901  0.24275059  0.89783953    -0.83260
C462        C  0.35920375  0.25627196  0.87239758     0.97280
O463        O  0.37042704  0.24010946  0.84955686    -0.83290
O464        O  0.38353178  0.18750359  0.81161469    -0.85890
C465        C  0.35949580  0.17626606  0.79697814     1.01760
O466        O  0.33689161  0.16364581  0.81222668    -0.78710
O467        O  0.29639290  0.15576320  0.86426240    -0.78860
C468        C  0.28225448  0.18137937  0.87249786     1.01720
Cr469      Cr  0.33837062  0.19729277  0.90769772     1.93740
Cr470      Cr  0.39220678  0.19878530  0.85769959     1.93210
Cr471      Cr  0.34256675  0.14483765  0.85582416     1.39100
O472        O  0.35726090  0.18072724  0.87304221    -1.23950
O473        O  0.14343525  0.21380789  0.92423898    -0.86200
O474        O  0.18142251  0.16161217  0.93280800    -0.83240
C475        C  0.19580404  0.13624374  0.92595435     0.97260
O476        O  0.20815520  0.13262202  0.89864655    -0.83280
O477        O  0.15355522  0.12035934  0.86370583    -0.85920
C478        C  0.12716505  0.12545899  0.84978443     1.01790
O479        O  0.12115749  0.15282689  0.83783216    -0.78680
O480        O  0.11128693  0.18993582  0.89046378    -0.78870
C481        C  0.11674676  0.20098243  0.91812324     1.01740
O482        O  0.19271640  0.24180402  0.88515372    -0.86190
O483        O  0.23286268  0.19131141  0.89751471    -0.83260
C484        C  0.24713588  0.18235222  0.87219913     0.97280
O485        O  0.23173940  0.17086841  0.84863613    -0.83290
O486        O  0.17947775  0.15470055  0.80951713    -0.85890
C487        C  0.17049250  0.17962318  0.79451313     1.01760
O488        O  0.15931619  0.20308007  0.80983647    -0.78710
O489        O  0.14559895  0.24280677  0.86139719    -0.78860
C490        C  0.17030929  0.25702446  0.87178814     1.01720
Cr491      Cr  0.18655890  0.20072823  0.90693206     1.93740
Cr492      Cr  0.19159879  0.14748703  0.85612138     1.93210
Cr493      Cr  0.13714804  0.19635498  0.85143796     1.39100
O494        O  0.17204701  0.18196772  0.87119937    -1.23950
O495        O  0.20977398  0.39320139  0.92325598    -0.86200
O496        O  0.15662020  0.35855139  0.93342532    -0.83240
C497        C  0.12976905  0.34689617  0.92723246     0.97260
O498        O  0.12401457  0.33561002  0.89953951    -0.83280
O499        O  0.11486198  0.38977871  0.86484613    -0.85920
C500        C  0.12105041  0.41629790  0.85221681     1.01790
O501        O  0.14735152  0.41977641  0.83836752    -0.78680
O502        O  0.18220839  0.42653076  0.89335756    -0.78870
C503        C  0.19507409  0.41937121  0.91992294     1.01740
O504        O  0.23490662  0.34438612  0.88289900    -0.86190
O505        O  0.18281256  0.30585549  0.89664061    -0.83260
C506        C  0.17156654  0.29203571  0.87187796     0.97280
O507        O  0.15944157  0.30786107  0.84893711    -0.83290
O508        O  0.14805525  0.36031010  0.80989876    -0.85890
C509        C  0.17334022  0.36877784  0.79563407     1.01760
O510        O  0.19622953  0.38101288  0.81122444    -0.78710
O511        O  0.23545367  0.39339013  0.86372597    -0.78860
C512        C  0.24992124  0.36790831  0.87172452     1.01720
Cr513      Cr  0.19453793  0.35137393  0.90616166     1.93740
Cr514      Cr  0.13937605  0.34988744  0.85660769     1.93210
Cr515      Cr  0.18951766  0.40242434  0.85312579     1.39100
O516        O  0.17505918  0.36715961  0.87132663    -1.23950
O517        O  0.14707557  0.33337562  0.63193782    -0.86200
O518        O  0.18099905  0.38718406  0.62302538    -0.83240
C519        C  0.19229233  0.41412895  0.62961715     0.97260
O520        O  0.20646517  0.41902763  0.65609789    -0.83280
O521        O  0.15535294  0.42858654  0.69357901    -0.85920
C522        C  0.12921622  0.42207398  0.70641187     1.01790
O523        O  0.12423674  0.39428796  0.71679533    -0.78680
O524        O  0.11507468  0.36038120  0.66244489    -0.78870
C525        C  0.12078786  0.34752023  0.63578981     1.01740
O526        O  0.19778827  0.30702043  0.67059945    -0.86190
O527        O  0.23539355  0.35893676  0.65587590    -0.83260
C528        C  0.25035931  0.36755837  0.68093072     0.97280
O529        O  0.23580995  0.37943828  0.70456629    -0.83290
O530        O  0.18510188  0.39233765  0.74551077    -0.85890
C531        C  0.17430119  0.36811117  0.76008632     1.01760
O532        O  0.16190914  0.34522964  0.74459568    -0.78710
O533        O  0.14963144  0.30636302  0.69096426    -0.78860
C534        C  0.17462000  0.29175319  0.68189665     1.01720
Cr535      Cr  0.18952355  0.34817591  0.64832147     1.93740
Cr536      Cr  0.19432415  0.40184646  0.69900415     1.93210
Cr537      Cr  0.14056023  0.35229885  0.70220246     1.39100
O538        O  0.17541091  0.36697552  0.68387014    -1.23950
O539        O  0.32819470  0.39153284  0.62942131    -0.86200
O540        O  0.37995355  0.35409267  0.62067403    -0.83240
C541        C  0.40733084  0.34354434  0.62738122     0.97260
O542        O  0.41312303  0.33213557  0.65510875    -0.83280
O543        O  0.42048904  0.38511907  0.69225009    -0.85920
C544        C  0.41453298  0.41148091  0.70560133     1.01790
O545        O  0.38741571  0.41602930  0.71743844    -0.78680
O546        O  0.35452976  0.42378202  0.66098177    -0.78870
C547        C  0.34266725  0.41760683  0.63373503     1.01740
O548        O  0.30009065  0.34326393  0.66940350    -0.86190
O549        O  0.35076877  0.30208518  0.65683033    -0.83260
C550        C  0.36160363  0.28765627  0.68160341     0.97280
O551        O  0.37508676  0.30302688  0.70399211    -0.83290
O552        O  0.38500616  0.35495281  0.74398397    -0.85890
C553        C  0.35986431  0.36489355  0.75760309     1.01760
O554        O  0.33744896  0.37772447  0.74165033    -0.78710
O555        O  0.30005381  0.39212063  0.68851616    -0.78860
C556        C  0.28531116  0.36705772  0.68058272     1.01720
Cr557      Cr  0.34126418  0.34861758  0.64709425     1.93740
Cr558      Cr  0.39551634  0.34529430  0.69782805     1.93210
Cr559      Cr  0.34578530  0.39937332  0.70050680     1.39100
O560        O  0.36040431  0.36374307  0.68232104    -1.23950
O561        O  0.18142981  0.15990640  0.62083491    -0.86200
O562        O  0.14821294  0.21499498  0.62827237    -0.83240
C563        C  0.12094764  0.20391833  0.63344399     0.97260
O564        O  0.11394367  0.19268905  0.66044389    -0.83280
O565        O  0.11873130  0.15645498  0.71352995    -0.85920
C566        C  0.12264771  0.12932115  0.70094491     1.01790
O567        O  0.14954592  0.12140661  0.69012496    -0.78680
O568        O  0.20413635  0.12800298  0.65577497    -0.78870
C569        C  0.19307347  0.13294858  0.62779800     1.01740
O570        O  0.23434594  0.18650632  0.65726832    -0.86190
O571        O  0.19698409  0.24058019  0.66936768    -0.83260
C572        C  0.17427208  0.25655177  0.68127299     0.97280
O573        O  0.14911427  0.24292710  0.69032422    -0.83290
O574        O  0.15980908  0.20329546  0.74312426    -0.85890
C575        C  0.17037628  0.17954923  0.75880812     1.01760
O576        O  0.17871012  0.15430575  0.74424190    -0.78710
O577        O  0.23217330  0.16583767  0.70590031    -0.78860
C578        C  0.24817200  0.17707872  0.68284491     1.01720
Cr579      Cr  0.18918038  0.19905584  0.64708116     1.93740
Cr580      Cr  0.13844236  0.19776927  0.70047177     1.92710
Cr581      Cr  0.18981603  0.14541360  0.69801496     1.39100
O582        O  0.17291425  0.18120627  0.68229558    -1.23950
O583        O  0.38675332  0.20881175  0.63304836    -0.86200
O584        O  0.35212427  0.15504594  0.62549519    -0.83240
C585        C  0.33972418  0.12866935  0.63231335     0.97260
O586        O  0.32431019  0.12605401  0.65802838    -0.83280
O587        O  0.37769499  0.11481992  0.69386523    -0.85920
C588        C  0.40447055  0.12007173  0.70661922     1.01790
O589        O  0.41025588  0.14710167  0.71904052    -0.78680
O590        O  0.41917769  0.18288124  0.66511965    -0.78870
C591        C  0.41332458  0.19538864  0.63809806     1.01740
O592        O  0.33788664  0.23715258  0.67044428    -0.86190
O593        O  0.29823206  0.18473753  0.65823764    -0.83260
C594        C  0.28346979  0.17660420  0.68352277     0.97280
O595        O  0.29860778  0.16554473  0.70753973    -0.83290
O596        O  0.35014005  0.15046999  0.74726139    -0.85890
C597        C  0.35981149  0.17535404  0.76157361     1.01760
O598        O  0.37252895  0.19784287  0.74610947    -0.78710
O599        O  0.38545224  0.23712016  0.69359293    -0.78860
C600        C  0.36109593  0.25216267  0.68275732     1.01720
Cr601      Cr  0.34441761  0.19493774  0.64973849     1.93740
Cr602      Cr  0.33927362  0.14205694  0.70080083     1.93210
Cr603      Cr  0.39404102  0.19048561  0.70453724     1.39100
O604        O  0.35870303  0.17656706  0.68573075    -1.23950
C605        C  0.01852026  0.00514461  0.70750329    -0.00280
C606        C  0.01635220  0.03828936  0.70954119    -0.00290
C607        C  0.01610802  0.00708020  0.84496015    -0.00280
C608        C  0.01780070  0.04048167  0.84702549    -0.00290
C609        C  0.19478664  0.02306203  0.50869175    -0.00280
C610        C  0.19009815  0.02330298  0.54203154    -0.00290
C611        C  0.01451368  0.19274476  0.51211687    -0.00280
C612        C  0.01532071  0.18956983  0.54519728    -0.00290
C613        C  0.34539881  0.02444590  0.51008928    -0.00280
C614        C  0.35027622  0.02199539  0.54309431    -0.00290
C615        C  0.01764348  0.34844767  0.50924890    -0.00280
C616        C  0.01762938  0.34949014  0.54244614    -0.00290
C617        C  0.36154880  0.10449720  0.58228107    -0.10000
C618        C  0.34298541  0.10124914  0.61003305     0.06190
C619        C  0.33067222  0.07083048  0.61713084    -0.03770
C620        C  0.32994152  0.04754015  0.59326005    -0.08220
C621        C  0.34810646  0.05062667  0.56506288     0.05310
C622        C  0.36663090  0.07854489  0.56178095    -0.03250
Br623      Br  0.40473354  0.07992682  0.53704980    -0.02940
H624        H  0.37475781  0.12625857  0.57820878     0.09220
H625        H  0.31771534  0.02544052  0.59840095     0.07240
Br626      Br  0.32287550  0.05635986  0.66035048    -0.03370
C627        C  0.45919029  0.16772278  0.61289480    -0.10000
C628        C  0.43744846  0.19338117  0.61223189     0.06190
C629        C  0.43909482  0.21561851  0.58664707    -0.03770
C630        C  0.46300751  0.21255121  0.56354456    -0.08220
C631        C  0.48548237  0.18762553  0.56489489     0.05310
C632        C  0.48283513  0.16464741  0.58965537    -0.03250
Br633      Br  0.01101694  0.12849248  0.59314925    -0.02940
H634        H  0.45790222  0.14984200  0.63172296     0.09220
H635        H  0.46511570  0.23066060  0.54535725     0.07240
Br636      Br  0.41140134  0.25218696  0.58303081    -0.03370
C637        C  0.47021673  0.06508561  0.73729875    -0.10000
C638        C  0.48398112  0.05422445  0.70854667     0.06190
C639        C  0.46831838  0.06164379  0.67909683    -0.03770
C640        C  0.44186379  0.08249601  0.67861015    -0.08220
C641        C  0.42934306  0.09460129  0.70736490     0.05310
C642        C  0.44202538  0.08338223  0.73667102    -0.03250
Br643      Br  0.41815100  0.08861806  0.77517520    -0.02940
H644        H  0.48088666  0.05847153  0.76024634     0.09220
H645        H  0.43163439  0.08995164  0.65572032     0.07240
Br646      Br  0.48419041  0.04646176  0.63881538    -0.03370
C647        C  0.04282372  0.21574888  0.59119359    -0.10000
C648        C  0.04499309  0.19430863  0.56514119     0.06190
C649        C  0.07359208  0.17672497  0.56154828    -0.03770
C650        C  0.09950520  0.18263610  0.58225189    -0.08220
C651        C  0.09661885  0.20391196  0.60808357     0.05310
C652        C  0.06796583  0.22024794  0.61273641    -0.03250
Br653      Br  0.06174503  0.24711672  0.64969861    -0.02940
H654        H  0.02065416  0.22790743  0.59590488     0.09220
H655        H  0.12109098  0.16866158  0.57986054     0.07240
Br656      Br  0.07685896  0.14025387  0.53404672    -0.03370
C657        C  0.21603719  0.05637417  0.58410861    -0.10000
C658        C  0.19147025  0.05344804  0.56123373     0.06190
C659        C  0.16812785  0.07790294  0.55903727    -0.03770
C660        C  0.16981104  0.10443814  0.57972643    -0.08220
C661        C  0.19390138  0.10671300  0.60350696     0.05310
C662        C  0.21717719  0.08226116  0.60518851    -0.03250
Br663      Br  0.25116578  0.08238083  0.63597001    -0.02940
H664        H  0.23412186  0.03784696  0.58608447     0.09220
H665        H  0.15131376  0.12244636  0.57824332     0.07240
Br666      Br  0.13250079  0.07454726  0.52991536    -0.03370
C667        C  0.10106403  0.07691004  0.71658073    -0.10000
C668        C  0.09616747  0.10599363  0.70107734     0.06190
C669        C  0.06533907  0.11317971  0.68935461    -0.03770
C670        C  0.04084141  0.09073751  0.69192814    -0.08220
C671        C  0.04489625  0.06134177  0.70846972     0.05310
C672        C  0.07568623  0.05623391  0.72260702    -0.03250
Br673      Br  0.08545107  0.02746369  0.75622995    -0.02940
H674        H  0.12424590  0.07196708  0.72736258     0.09220
H675        H  0.01826434  0.09718928  0.68105699     0.07240
Br676      Br  0.05465853  0.15305671  0.66939869    -0.03370
C677        C  0.45914737  0.32351986  0.60756174    -0.10000
C678        C  0.43326807  0.34423278  0.60303988     0.06190
C679        C  0.43428195  0.36606726  0.57691113    -0.03770
C680        C  0.46131719  0.36749215  0.55713396    -0.08220
C681        C  0.48755487  0.34691530  0.56217888     0.05310
C682        C  0.48560436  0.32454143  0.58764370    -0.03250
Br683      Br  0.01719899  0.29294487  0.59606093    -0.02940
H684        H  0.45887937  0.30610335  0.62688776     0.09220
H685        H  0.46212928  0.38537611  0.53831862     0.07240
Br686      Br  0.40069220  0.39584637  0.56769740    -0.03370
C687        C  0.37066581  0.46390185  0.61024222    -0.10000
C688        C  0.34627511  0.44127932  0.60727380     0.06190
C689        C  0.32756639  0.44149670  0.57877106    -0.03770
C690        C  0.33002755  0.46687940  0.55691624    -0.08220
C691        C  0.35305913  0.49076328  0.56104436     0.05310
C692        C  0.37499335  0.48746391  0.58698427    -0.03250
Br693      Br  0.41114003  0.01474489  0.59275931    -0.02940
H694        H  0.38697271  0.46305507  0.63064334     0.09220
H695        H  0.31357344  0.46803410  0.53689111     0.07240
Br696      Br  0.29923659  0.40776024  0.56729422    -0.03370
C697        C  0.46503066  0.43389720  0.68556543    -0.10000
C698        C  0.43945185  0.43691307  0.70660161     0.06190
C699        C  0.43867477  0.46402266  0.72698296    -0.03770
C700        C  0.46415881  0.48584646  0.72719657    -0.08220
C701        C  0.48965848  0.48318138  0.70548796     0.05310
C702        C  0.48930969  0.45642563  0.68447784    -0.03250
Br703      Br  0.02110020  0.44743115  0.65336262    -0.02940
H704        H  0.46610982  0.41379003  0.66920946     0.09220
H705        H  0.46428970  0.50423216  0.74529697     0.07240
Br706      Br  0.40396151  0.47295342  0.75526044    -0.03370
C707        C  0.07453751  0.37478226  0.60885043    -0.10000
C708        C  0.09681318  0.34939322  0.60921320     0.06190
C709        C  0.09625825  0.32745332  0.58335715    -0.03770
C710        C  0.07212021  0.32958737  0.55998811    -0.08220
C711        C  0.04781521  0.35252717  0.56189681     0.05310
C712        C  0.05074566  0.37672662  0.58495177    -0.03250
Br713      Br  0.02439488  0.41407252  0.58152327    -0.02940
H714        H  0.07584820  0.39338110  0.62689957     0.09220
H715        H  0.07153117  0.31249670  0.54093218     0.07240
Br716      Br  0.12579394  0.29247551  0.57923334    -0.03370
C717        C  0.17280636  0.46795179  0.61432135    -0.10000
C718        C  0.18924862  0.44012629  0.60619855     0.06190
C719        C  0.20230899  0.43758793  0.57574193    -0.03770
C720        C  0.20363914  0.46451657  0.55625290    -0.08220
C721        C  0.18673917  0.49307342  0.56289793     0.05310
C722        C  0.16936079  0.49316575  0.59230176    -0.03250
Br723      Br  0.13881774  0.02503961  0.60435451    -0.02940
H724        H  0.16156693  0.46952754  0.63751601     0.09220
H725        H  0.21943990  0.46204948  0.53686023     0.07240
Br726      Br  0.21886883  0.39795870  0.55971386    -0.03370
C727        C  0.10030105  0.47059360  0.68582741    -0.10000
C728        C  0.10366745  0.44648168  0.70923336     0.06190
C729        C  0.08038236  0.44382176  0.73321725    -0.03770
C730        C  0.05354529  0.46372957  0.73240163    -0.08220
C731        C  0.04960428  0.48742702  0.70855994     0.05310
C732        C  0.07351987  0.49081863  0.68508076    -0.03250
Br733      Br  0.06814353  0.01838803  0.64845531    -0.02940
H734        H  0.11739258  0.47239795  0.66673474     0.09220
H735        H  0.03549377  0.46088316  0.75054481     0.07240
Br736      Br  0.08451990  0.41341233  0.76777180    -0.03370
C737        C  0.07839915  0.32608363  0.94478740    -0.10000
C738        C  0.10407858  0.34598782  0.95155294     0.06190
C739        C  0.10247844  0.36568595  0.97914635    -0.03770
C740        C  0.07393750  0.36770729  0.99654846    -0.08220
C741        C  0.04798914  0.34738336  0.98973267     0.05310
C742        C  0.05121897  0.32623596  0.96337266    -0.03250
Br743      Br  0.02057038  0.29608976  0.94950940    -0.02940
H744        H  0.07931140  0.30992606  0.92445066     0.09220
H745        H  0.07244128  0.38495516  0.01581300     0.07240
Br746      Br  0.13843395  0.38842557  0.99609723    -0.03370
C747        C  0.07257190  0.44167907  0.87597957    -0.10000
C748        C  0.09723170  0.44286245  0.85328934     0.06190
C749        C  0.09831701  0.46958374  0.83251765    -0.03770
C750        C  0.07250650  0.49094362  0.83133462    -0.08220
C751        C  0.04644520  0.48828698  0.85190163     0.05310
C752        C  0.04840538  0.46497528  0.87646690    -0.03250
Br753      Br  0.01864345  0.46338915  0.91077696    -0.02940
H754        H  0.07198842  0.42252826  0.89352113     0.09220
H755        H  0.07223954  0.50941374  0.81377935     0.07240
Br756      Br  0.13343717  0.47815701  0.80446187    -0.03370
C757        C  0.22262242  0.45167641  0.96107003    -0.10000
C758        C  0.19390819  0.44201597  0.94677654     0.06190
C759        C  0.16488709  0.45599328  0.95686697    -0.03770
C760        C  0.16512949  0.48006789  0.98018419    -0.08220
C761        C  0.19417067  0.49216169  0.99151788     0.05310
C762        C  0.22292720  0.47749703  0.98219347    -0.03250
Br763      Br  0.26241003  0.49085291  0.00064682    -0.02940
H764        H  0.24498145  0.44078125  0.95403336     0.09220
H765        H  0.14299206  0.49163942  0.98682550     0.07240
Br766      Br  0.12478606  0.44623332  0.93701097    -0.03370
C767        C  0.05972061  0.07273978  0.81894220    -0.10000
C768        C  0.04979839  0.05732452  0.84719518     0.06190
C769        C  0.06923274  0.06059473  0.87498205    -0.03770
C770        C  0.09664893  0.07994493  0.87419734    -0.08220
C771        C  0.10296818  0.09947294  0.84737276     0.05310
C772        C  0.08416896  0.09534033  0.81945485    -0.03250
Br773      Br  0.08947296  0.12120745  0.78189367    -0.02940
H774        H  0.04690895  0.06876342  0.79658293     0.09220
H775        H  0.11107419  0.08232122  0.89584567     0.07240
Br776      Br  0.05820306  0.04151570  0.91519315    -0.03370
C777        C  0.19102412  0.07959839  0.93458538    -0.10000
C778        C  0.19673054  0.10912721  0.94815482     0.06190
C779        C  0.20588188  0.11092024  0.98054040    -0.03770
C780        C  0.20806715  0.08284371  0.99891372    -0.08220
C781        C  0.19909685  0.05250817  0.98659685     0.05310
C782        C  0.19378958  0.05165832  0.95222504    -0.03250
Br783      Br  0.19593697  0.01673726  0.92235316    -0.02940
H784        H  0.18554720  0.07824091  0.90901468     0.09220
H785        H  0.21804800  0.08560179  0.02254146     0.07240
Br786      Br  0.21709431  0.15069313  0.00032660    -0.03370
C787        C  0.08932012  0.22159655  0.96787551    -0.10000
C788        C  0.09163849  0.19852532  0.94338628     0.06190
C789        C  0.06940099  0.17320979  0.94345786    -0.03770
C790        C  0.04615284  0.17127655  0.96710941    -0.08220
C791        C  0.04359234  0.19425413  0.99133002     0.05310
C792        C  0.06512000  0.21995755  0.99111166    -0.03250
Br793      Br  0.05992475  0.25500340  0.01940049    -0.02940
H794        H  0.10541825  0.24172432  0.96811355     0.09220
H795        H  0.02928430  0.15177505  0.96625267     0.07240
Br796      Br  0.06851880  0.13988239  0.91235269    -0.03370
C797        C  0.31621867  0.10311227  0.97347203    -0.10000
C798        C  0.34074944  0.10809704  0.95128419     0.06190
C799        C  0.36897892  0.09019980  0.95450211    -0.03770
C800        C  0.36965159  0.06300249  0.97344070    -0.08220
C801        C  0.34451407  0.05620997  0.99409568     0.05310
C802        C  0.31855761  0.07789091  0.99585275    -0.03250
Br803      Br  0.28402249  0.07140914  0.02468007    -0.02940
H804        H  0.29481394  0.11769730  0.97245960     0.09220
H805        H  0.39063215  0.04774848  0.97328443     0.07240
Br806      Br  0.40860713  0.10502859  0.93843078    -0.03370
C807        C  0.43855167  0.08095804  0.86996580    -0.10000
C808        C  0.43896464  0.10903389  0.85158241     0.06190
C809        C  0.46513280  0.11448139  0.83172087    -0.03770
C810        C  0.48847118  0.09079941  0.82843305    -0.08220
C811        C  0.48959466  0.06334718  0.84848436     0.05310
C812        C  0.46534981  0.06078061  0.87181184    -0.03250
Br813      Br  0.46663079  0.03020241  0.90617477    -0.02940
H814        H  0.41778700  0.07505339  0.88369514     0.09220
H815        H  0.50554089  0.09492316  0.80997068     0.07240
Br816      Br  0.46857864  0.15257893  0.80612182    -0.03370
C817        C  0.48077954  0.22139623  0.97192351    -0.10000
C818        C  0.48389684  0.19564375  0.99336468     0.06190
C819        C  0.45972318  0.17249466  0.99366953    -0.03770
C820        C  0.43210394  0.17698599  0.97484146    -0.08220
C821        C  0.42985852  0.20202138  0.95228103     0.05310
C822        C  0.45475654  0.22435688  0.95090995    -0.03250
Br823      Br  0.45500210  0.25893834  0.92037385    -0.02940
H824        H  0.49959721  0.23865244  0.97074453     0.09220
H825        H  0.41334221  0.15952035  0.97620397     0.07240
Br826      Br  0.46575912  0.13199444  0.51428371    -0.03370
C827        C  0.32514529  0.46875545  0.93891207    -0.10000
C828        C  0.34392098  0.44188102  0.94561421     0.06190
C829        C  0.36502527  0.44301829  0.97236087    -0.03770
C830        C  0.36583929  0.47012883  0.99214394    -0.08220
C831        C  0.34515405  0.49632711  0.98694816     0.05310
C832        C  0.32605003  0.49588524  0.95815953    -0.03250
Br833      Br  0.29952138  0.52986331  0.94113837    -0.02940
H834        H  0.30952125  0.46895726  0.91796292     0.09220
H835        H  0.38326079  0.47071156  0.01150208     0.07240
Br836      Br  0.39453788  0.40942776  0.98283207    -0.03370
C837        C  0.43978384  0.32615896  0.96639147    -0.10000
C838        C  0.43860961  0.34960859  0.94227360     0.06190
C839        C  0.46013801  0.37525953  0.94407020    -0.03770
C840        C  0.48427169  0.37532098  0.96751534    -0.08220
C841        C  0.48737163  0.35028438  0.98986159     0.05310
C842        C  0.46401713  0.32606127  0.98980156    -0.03250
Br843      Br  0.46681211  0.28928955  0.01682412    -0.02940
H844        H  0.42284108  0.30674275  0.96599010     0.09220
H845        H  0.50133388  0.39464910  0.96777317     0.07240
Br846      Br  0.45605766  0.41203564  0.91686588    -0.03370
C847        C  0.45433917  0.49849495  0.83532719    -0.10000
C848        C  0.48606093  0.48655868  0.83700165     0.06190
C849        C  0.48838780  0.45294460  0.83148000    -0.03770
C850        C  0.46214977  0.43297965  0.83407395    -0.08220
C851        C  0.43156826  0.44487015  0.83912520     0.05310
C852        C  0.42751353  0.47837578  0.83833285    -0.03250
Br853      Br  0.38618423  0.49818240  0.83956378    -0.02940
H854        H  0.44944075  0.52312288  0.83053071     0.09220
H855        H  0.46586429  0.40748197  0.83143627     0.07240
Br856      Br  0.02334287  0.43131548  0.81248227    -0.03370
O857        O  0.38839053  0.83361491  0.42098092    -0.86200
O858        O  0.35412925  0.88801999  0.42945712    -0.83240
C859        C  0.34226272  0.91480663  0.42253195     0.97260
O860        O  0.32834525  0.91885421  0.39562105    -0.83280
O861        O  0.37975631  0.92786027  0.35680276    -0.85920
C862        C  0.40550077  0.92095657  0.34308684     1.01790
O863        O  0.41013476  0.89272207  0.33319297    -0.78680
O864        O  0.42019383  0.85880651  0.38867746    -0.78870
C865        C  0.41455958  0.84732759  0.41603799     1.01740
O866        O  0.33768917  0.80726719  0.38341063    -0.86190
O867        O  0.29978993  0.85952485  0.39691669    -0.83260
C868        C  0.28484768  0.86773850  0.37157855     0.97280
O869        O  0.29939891  0.87901430  0.34776177    -0.83290
O870        O  0.34938644  0.89070543  0.30657792    -0.85890
C871        C  0.35901272  0.86549122  0.29280307     1.01760
O872        O  0.37123694  0.84278093  0.30872999    -0.78710
O873        O  0.38525949  0.80501102  0.36173045    -0.78860
C874        C  0.36019960  0.79132379  0.37140723     1.01720
Cr875      Cr  0.34583337  0.84858637  0.40469867     1.93740
Cr876      Cr  0.34064576  0.90121957  0.35280299     1.93210
Cr877      Cr  0.39401528  0.85078348  0.34967780     1.39100
O878        O  0.35973852  0.86649673  0.36859297    -1.23950
O879        O  0.32258899  0.65628496  0.42632009    -0.86200
O880        O  0.37709427  0.69017727  0.43456385    -0.83240
C881        C  0.40370738  0.70204947  0.42802085     0.97260
O882        O  0.40852486  0.71348169  0.40036304    -0.83280
O883        O  0.41863190  0.66002151  0.36494194    -0.85920
C884        C  0.41274888  0.63273093  0.35383538     1.01790
O885        O  0.38502811  0.62583141  0.34395639    -0.78680
O886        O  0.34890666  0.62224026  0.39714705    -0.78870
C887        C  0.33699129  0.63000969  0.42367106     1.01740
O888        O  0.29762423  0.70442642  0.38437431    -0.86190
O889        O  0.34981899  0.74275056  0.39783955    -0.83260
C890        C  0.35920374  0.75627193  0.37239760     0.97280
O891        O  0.37042703  0.74010943  0.34955687    -0.83290
O892        O  0.38353177  0.68750355  0.31161471    -0.85890
C893        C  0.35949579  0.67626603  0.29697815     1.01760
O894        O  0.33689158  0.66364579  0.31222668    -0.78710
O895        O  0.29639286  0.65576319  0.36426239    -0.78860
C896        C  0.28225444  0.68137936  0.37249786     1.01720
Cr897      Cr  0.33837059  0.69729274  0.40769772     1.93740
Cr898      Cr  0.39220675  0.69878526  0.35769961     1.93210
Cr899      Cr  0.34256670  0.64483763  0.35582416     1.39100
O900        O  0.35726086  0.68072722  0.37304221    -1.23950
O901        O  0.14343521  0.71380791  0.42423896    -0.86200
O902        O  0.18142247  0.66161219  0.43280799    -0.83240
C903        C  0.19580400  0.63624376  0.42595434     0.97260
O904        O  0.20815517  0.63262204  0.39864655    -0.83280
O905        O  0.15355519  0.62035935  0.36370584    -0.85920
C906        C  0.12716502  0.62545900  0.34978444     1.01790
O907        O  0.12115745  0.65282690  0.33783216    -0.78680
O908        O  0.11128689  0.68993584  0.39046376    -0.78870
C909        C  0.11674672  0.70098245  0.41812322     1.01740
O910        O  0.19271638  0.74180402  0.38515370    -0.86190
O911        O  0.23286264  0.69131142  0.39751469    -0.83260
C912        C  0.24713584  0.68235222  0.37219912     0.97280
O913        O  0.23173936  0.67086842  0.34863612    -0.83290
O914        O  0.17947772  0.65470053  0.30951712    -0.85890
C915        C  0.17049247  0.67962316  0.29451312     1.01760
O916        O  0.15931616  0.70308005  0.30983644    -0.78710
O917        O  0.14559893  0.74280678  0.36139716    -0.78860
C918        C  0.17030927  0.75702447  0.37178810     1.01720
Cr919      Cr  0.18655886  0.70072824  0.40693205     1.93740
Cr920      Cr  0.19159876  0.64748704  0.35612138     1.93210
Cr921      Cr  0.13714800  0.69635498  0.35143794     1.39100
O922        O  0.17204698  0.68196773  0.37119936    -1.23950
O923        O  0.20977401  0.89320137  0.42325601    -0.86200
O924        O  0.15662023  0.85855137  0.43342531    -0.83240
C925        C  0.12976908  0.84689617  0.42723243     0.97260
O926        O  0.12401459  0.83561004  0.39953947    -0.83280
O927        O  0.11486206  0.88977876  0.36484614    -0.85920
C928        C  0.12105050  0.91629796  0.35221685     1.01790
O929        O  0.14735160  0.91977644  0.33836753    -0.78680
O930        O  0.18220845  0.92653076  0.39335759    -0.78870
C931        C  0.19507414  0.91937120  0.41992296     1.01740
O932        O  0.23490664  0.84438610  0.38289901    -0.86190
O933        O  0.18281257  0.80585549  0.39664059    -0.83260
C934        C  0.17156654  0.79203572  0.37187793     0.97280
O935        O  0.15944159  0.80786109  0.34893708    -0.83290
O936        O  0.14805532  0.86031016  0.30989876    -0.85890
C937        C  0.17334031  0.86877787  0.29563408     1.01760
O938        O  0.19622961  0.88101290  0.31122446    -0.78710
O939        O  0.23545373  0.89339012  0.36372601    -0.78860
C940        C  0.24992127  0.86790829  0.37172454     1.01720
Cr941      Cr  0.19453796  0.85137392  0.40616166     1.93740
Cr942      Cr  0.13937610  0.84988748  0.35660768     1.93210
Cr943      Cr  0.18951773  0.90242435  0.35312581     1.39100
O944        O  0.17505923  0.86715962  0.37132663    -1.23950
O945        O  0.14707558  0.83337563  0.13193786    -0.86200
O946        O  0.18099910  0.88718403  0.12302539    -0.83240
C947        C  0.19229239  0.91412892  0.12961714     0.97260
O948        O  0.20646525  0.91902760  0.15609788    -0.83280
O949        O  0.15535307  0.92858653  0.19357905    -0.85920
C950        C  0.12921637  0.92207400  0.20641196     1.01790
O951        O  0.12423685  0.89428798  0.21679540    -0.78680
O952        O  0.11507474  0.86038120  0.16244497    -0.78870
C953        C  0.12078788  0.84752024  0.13578988     1.01740
O954        O  0.19778830  0.80702040  0.17059946    -0.86190
O955        O  0.23539363  0.85893670  0.15587588    -0.83260
C956        C  0.25035940  0.86755832  0.18093069     0.97280
O957        O  0.23581005  0.87943824  0.20456626    -0.83290
O958        O  0.18510202  0.89233764  0.24551078    -0.85890
C959        C  0.17430131  0.86811117  0.26008634     1.01760
O960        O  0.16190925  0.84522964  0.24459570    -0.78710
O961        O  0.14963149  0.80636301  0.19096430    -0.78860
C962        C  0.17462003  0.79175317  0.18189667     1.01720
Cr963      Cr  0.18952360  0.84817588  0.14832148     1.93740
Cr964      Cr  0.19432426  0.90184644  0.19900415     1.93210
Cr965      Cr  0.14056031  0.85229885  0.20220251     1.39100
O966        O  0.17541099  0.86697551  0.18387016    -1.23950
O967        O  0.32819484  0.89153279  0.12942129    -0.86200
O968        O  0.37995369  0.85409262  0.12067406    -0.83240
C969        C  0.40733099  0.84354431  0.12738126     0.97260
O970        O  0.41312319  0.83213558  0.15510880    -0.83280
O971        O  0.42048917  0.88511909  0.19225013    -0.85920
C972        C  0.41453307  0.91148094  0.20560135     1.01790
O973        O  0.38741580  0.91602931  0.21743845    -0.78680
O974        O  0.35452986  0.92378199  0.16098176    -0.78870
C975        C  0.34266736  0.91760680  0.13373502     1.01740
O976        O  0.30009076  0.84326390  0.16940347    -0.86190
O977        O  0.35076890  0.80208515  0.15683037    -0.83260
C978        C  0.36160376  0.78765624  0.18160345     0.97280
O979        O  0.37508691  0.80302686  0.20399213    -0.83290
O980        O  0.38500626  0.85495282  0.24398401    -0.85890
C981        C  0.35986440  0.86489356  0.25760312     1.01760
O982        O  0.33744905  0.87772447  0.24165034    -0.78710
O983        O  0.30005391  0.89212059  0.18851615    -0.78860
C984        C  0.28531126  0.86705769  0.18058269     1.01720
Cr985      Cr  0.34126431  0.84861755  0.14709426     1.93740
Cr986      Cr  0.39551647  0.84529431  0.19782809     1.93210
Cr987      Cr  0.34578540  0.89937330  0.20050680     1.39100
O988        O  0.36040444  0.86374305  0.18232106    -1.23950
O989        O  0.18142981  0.65990639  0.12083490    -0.86200
O990        O  0.14821295  0.71499497  0.12827235    -0.83240
C991        C  0.12094764  0.70391833  0.13344397     0.97260
O992        O  0.11394366  0.69268905  0.16044386    -0.83280
O993        O  0.11873127  0.65645495  0.21352989    -0.85920
C994        C  0.12264769  0.62932112  0.20094485     1.01790
O995        O  0.14954591  0.62140659  0.19012492    -0.78680
O996        O  0.20413635  0.62800296  0.15577495    -0.78870
C997        C  0.19307346  0.63294856  0.12779800     1.01740
O998        O  0.23434595  0.68650629  0.15726833    -0.86190
O999        O  0.19698410  0.74058016  0.16936769    -0.83260
C1000       C  0.17427209  0.75655174  0.18127300     0.97280
O1001       O  0.14911428  0.74292708  0.19032421    -0.83290
O1002       O  0.15980904  0.70329542  0.24312424    -0.85890
C1003       C  0.17037625  0.67954920  0.25880810     1.01760
O1004       O  0.17871010  0.65430571  0.24424188    -0.78710
O1005       O  0.23217330  0.66583764  0.20590032    -0.78860
C1006       C  0.24817200  0.67707869  0.18284493     1.01720
Cr1007     Cr  0.18918038  0.69905582  0.14708115     1.93740
Cr1008     Cr  0.13844235  0.69776925  0.20047174     1.92710
Cr1009     Cr  0.18981602  0.64541357  0.19801495     1.39100
O1010       O  0.17291425  0.68120625  0.18229557    -1.23950
O1011       O  0.38675336  0.70881170  0.13304840    -0.86200
O1012       O  0.35212426  0.65504592  0.12549521    -0.83240
C1013       C  0.33972417  0.62866932  0.13231337     0.97260
O1014       O  0.32431020  0.62605397  0.15802840    -0.83280
O1015       O  0.37769500  0.61481985  0.19386524    -0.85920
C1016       C  0.40447056  0.62007165  0.20661923     1.01790
O1017       O  0.41025589  0.64710159  0.21904055    -0.78680
O1018       O  0.41917771  0.68288114  0.16511967    -0.78870
C1019       C  0.41332460  0.69538856  0.13809809     1.01740
O1020       O  0.33788671  0.73715256  0.17044434    -0.86190
O1021       O  0.29823208  0.68473754  0.15823768    -0.83260
C1022       C  0.28346980  0.67660418  0.18352280     0.97280
O1023       O  0.29860779  0.66554468  0.20753975    -0.83290
O1024       O  0.35014006  0.65046994  0.24726141    -0.85890
C1025       C  0.35981150  0.67535399  0.26157363     1.01760
O1026       O  0.37252898  0.69784281  0.24610949    -0.78710
O1027       O  0.38545232  0.73712010  0.19359296    -0.78860
C1028       C  0.36109602  0.75216264  0.18275737     1.01720
Cr1029     Cr  0.34441763  0.69493772  0.14973853     1.93740
Cr1030     Cr  0.33927363  0.64205689  0.20080085     1.93210
Cr1031     Cr  0.39404106  0.69048554  0.20453726     1.39100
O1032       O  0.35870305  0.67656701  0.18573078    -1.23950
C1033       C  0.01852031  0.50514451  0.20750339    -0.00280
C1034       C  0.01635222  0.53828928  0.20954121    -0.00290
C1035       C  0.01610803  0.50708017  0.34496011    -0.00280
C1036       C  0.01780068  0.54048164  0.34702547    -0.00290
C1037       C  0.19478657  0.52306200  0.00869176    -0.00280
C1038       C  0.19009808  0.52330295  0.04203155    -0.00290
C1039       C  0.01451366  0.69274482  0.01211688    -0.00280
C1040       C  0.01532069  0.68956988  0.04519729    -0.00290
C1041       C  0.34539877  0.52444589  0.01008928    -0.00280
C1042       C  0.35027617  0.52199538  0.04309431    -0.00290
C1043       C  0.01764344  0.84844774  0.00924898    -0.00280
C1044       C  0.01762933  0.84949025  0.04244622    -0.00290
C1045       C  0.36154879  0.60449718  0.08228108    -0.10000
C1046       C  0.34298540  0.60124912  0.11003306     0.06190
C1047       C  0.33067220  0.57083046  0.11713084    -0.03770
C1048       C  0.32994148  0.54754014  0.09326005    -0.08220
C1049       C  0.34810643  0.55062666  0.06506288     0.05310
C1050       C  0.36663087  0.57854487  0.06178095    -0.03250
Br1051     Br  0.40473351  0.57992679  0.03704980    -0.02940
H1052       H  0.37475780  0.62625854  0.07820879     0.09220
H1053       H  0.31771530  0.52544051  0.09840095     0.07240
Br1054     Br  0.32287547  0.55635983  0.16035048    -0.03370
C1055       C  0.45919024  0.66772264  0.11289476    -0.10000
C1056       C  0.43744846  0.69338106  0.11223190     0.06190
C1057       C  0.43909484  0.71561842  0.08664710    -0.03770
C1058       C  0.46300750  0.71255111  0.06354457    -0.08220
C1059       C  0.48548232  0.68762540  0.06489486     0.05310
C1060       C  0.48283507  0.66464725  0.08965532    -0.03250
Br1061     Br  0.01101688  0.62849248  0.09314919    -0.02940
H1062       H  0.45790216  0.64984183  0.13172291     0.09220
H1063       H  0.46511571  0.73066052  0.04535729     0.07240
Br1064     Br  0.41140143  0.75218694  0.08303092    -0.03370
C1065       C  0.47021682  0.56508563  0.23729878    -0.10000
C1066       C  0.48398115  0.55422436  0.20854670     0.06190
C1067       C  0.46831835  0.56164363  0.17909686    -0.03770
C1068       C  0.44186376  0.58249585  0.17861018    -0.08220
C1069       C  0.42934308  0.59460120  0.20736492     0.05310
C1070       C  0.44202546  0.58338223  0.23667104    -0.03250
Br1071     Br  0.41815111  0.58861810  0.27517523    -0.02940
H1072       H  0.48088679  0.55847161  0.26024636     0.09220
H1073       H  0.43163432  0.58995142  0.15572035     0.07240
Br1074     Br  0.48419030  0.54646147  0.13881543    -0.03370
C1075       C  0.04282372  0.71574893  0.09119358    -0.10000
C1076       C  0.04499308  0.69430866  0.06514119     0.06190
C1077       C  0.07359205  0.67672498  0.06154827    -0.03770
C1078       C  0.09950519  0.68263611  0.08225187    -0.08220
C1079       C  0.09661885  0.70391198  0.10808354     0.05310
C1080       C  0.06796585  0.72024798  0.11273638    -0.03250
Br1081     Br  0.06174508  0.74711678  0.14969857    -0.02940
H1082       H  0.02065417  0.72790749  0.09590487     0.09220
H1083       H  0.12109095  0.66866157  0.07986052     0.07240
Br1084     Br  0.07685891  0.64025387  0.03404672    -0.03370
C1085       C  0.21603714  0.55637413  0.08410862    -0.10000
C1086       C  0.19147018  0.55344800  0.06123375     0.06190
C1087       C  0.16812778  0.57790290  0.05903730    -0.03770
C1088       C  0.16981098  0.60443810  0.07972646    -0.08220
C1089       C  0.19390135  0.60671297  0.10350696     0.05310
C1090       C  0.21717715  0.58226113  0.10518850    -0.03250
Br1091     Br  0.25116579  0.58238083  0.13596995    -0.02940
H1092       H  0.23412181  0.53784692  0.08608446     0.09220
H1093       H  0.15131370  0.62244632  0.07824335     0.07240
Br1094     Br  0.13250071  0.57454723  0.02991539    -0.03370
C1095       C  0.10106404  0.57691001  0.21658068    -0.10000
C1096       C  0.09616747  0.60599359  0.20107726     0.06190
C1097       C  0.06533907  0.61317963  0.18935451    -0.03770
C1098       C  0.04084142  0.59073741  0.19192805    -0.08220
C1099       C  0.04489627  0.56134169  0.20846969     0.05310
C1100       C  0.07568626  0.55623388  0.22260700    -0.03250
Br1101     Br  0.08545115  0.52746380  0.25623004    -0.02940
H1102       H  0.12424592  0.57196709  0.22736254     0.09220
H1103       H  0.01826436  0.59718914  0.18105687     0.07240
Br1104     Br  0.05465852  0.65305660  0.16939853    -0.03370
C1105       C  0.45914749  0.82351977  0.10756174    -0.10000
C1106       C  0.43326821  0.84423274  0.10303992     0.06190
C1107       C  0.43428209  0.86606722  0.07691118    -0.03770
C1108       C  0.46131731  0.86749207  0.05713396    -0.08220
C1109       C  0.48755496  0.84691518  0.06217885     0.05310
C1110       C  0.48560445  0.82454131  0.08764367    -0.03250
Br1111     Br  0.01719892  0.79294493  0.09606096    -0.02940
H1112       H  0.45887948  0.80610326  0.12688776     0.09220
H1113       H  0.46212940  0.88537604  0.03831863     0.07240
Br1114     Br  0.40069241  0.89584643  0.06769753    -0.03370
C1115       C  0.37066584  0.96390188  0.11024223    -0.10000
C1116       C  0.34627519  0.94127930  0.10727380     0.06190
C1117       C  0.32756648  0.94149667  0.07877105    -0.03770
C1118       C  0.33002758  0.96687939  0.05691624    -0.08220
C1119       C  0.35305914  0.99076330  0.06104437     0.05310
C1120       C  0.37499336  0.98746395  0.08698429    -0.03250
Br1121     Br  0.41113997  0.51474485  0.09275931    -0.02940
H1122       H  0.38697274  0.96305512  0.13064335     0.09220
H1123       H  0.31357347  0.96803408  0.03689112     0.07240
Br1124     Br  0.29923681  0.90776011  0.06729414    -0.03370
C1125       C  0.46503035  0.93389771  0.18556491    -0.10000
C1126       C  0.43945187  0.93691318  0.20660156     0.06190
C1127       C  0.43867498  0.96402250  0.22698328    -0.03770
C1128       C  0.46415895  0.98584639  0.22719683    -0.08220
C1129       C  0.48965831  0.98318164  0.20548783     0.05310
C1130       C  0.48930926  0.95642627  0.18447727    -0.03250
Br1131     Br  0.02110126  0.94742935  0.15336414    -0.02940
H1132       H  0.46610931  0.91379079  0.16920861     0.09220
H1133       H  0.46429004  0.00423189  0.24529744     0.07240
Br1134     Br  0.40396208  0.97295274  0.25526137    -0.03370
C1135       C  0.07453742  0.87478223  0.10885064    -0.10000
C1136       C  0.09681316  0.84939324  0.10921330     0.06190
C1137       C  0.09625823  0.82745341  0.08335719    -0.03770
C1138       C  0.07212016  0.82958748  0.05998818    -0.08220
C1139       C  0.04781514  0.85252726  0.06189693     0.05310
C1140       C  0.05074554  0.87672663  0.08495200    -0.03250
Br1141     Br  0.02439458  0.91407245  0.08152380    -0.02940
H1142       H  0.07584808  0.89338100  0.12689984     0.09220
H1143       H  0.07153112  0.81249683  0.04093222     0.07240
Br1144     Br  0.12579396  0.79247565  0.07923326    -0.03370
C1145       C  0.17280628  0.96795170  0.11432129    -0.10000
C1146       C  0.18924865  0.94012626  0.10619854     0.06190
C1147       C  0.20230910  0.93758793  0.07574195    -0.03770
C1148       C  0.20363924  0.96451657  0.05625291    -0.08220
C1149       C  0.18673914  0.99307337  0.06289791     0.05310
C1150       C  0.16936068  0.99316565  0.09230168    -0.03250
Br1151     Br  0.13881761  0.52503954  0.10435448    -0.02940
H1152       H  0.16156679  0.96952741  0.13751591     0.09220
H1153       H  0.21943999  0.96204955  0.03686037     0.07240
Br1154     Br  0.21886906  0.89795874  0.05971391    -0.03370
C1155       C  0.10030116  0.97059358  0.18582750    -0.10000
C1156       C  0.10366766  0.94648175  0.20923353     0.06190
C1157       C  0.08038271  0.94382192  0.23321756    -0.03770
C1158       C  0.05354561  0.96372970  0.23240197    -0.08220
C1159       C  0.04960447  0.98742703  0.20856018     0.05310
C1160       C  0.07351995  0.99081857  0.18508088    -0.03250
Br1161     Br  0.06814329  0.51838772  0.14845522    -0.02940
H1162       H  0.11739257  0.97239783  0.16673472     0.09220
H1163       H  0.03549417  0.96088336  0.25054524     0.07240
Br1164     Br  0.08452046  0.91341264  0.26777221    -0.03370
C1165       C  0.07839919  0.82608359  0.44478736    -0.10000
C1166       C  0.10407861  0.84598779  0.45155291     0.06190
C1167       C  0.10247845  0.86568591  0.47914632    -0.03770
C1168       C  0.07393752  0.86770725  0.49654842    -0.08220
C1169       C  0.04798917  0.84738329  0.48973263     0.05310
C1170       C  0.05121901  0.82623590  0.46337262    -0.03250
Br1171     Br  0.02057043  0.79608969  0.44950937    -0.02940
H1172       H  0.07931145  0.80992602  0.42445062     0.09220
H1173       H  0.07244128  0.88495512  0.51581295     0.07240
Br1174     Br  0.13843396  0.88842554  0.49609722    -0.03370
C1175       C  0.07257197  0.94167910  0.37597959    -0.10000
C1176       C  0.09723181  0.94286253  0.35328942     0.06190
C1177       C  0.09831717  0.96958386  0.33251780    -0.03770
C1178       C  0.07250660  0.99094368  0.33133469    -0.08220
C1179       C  0.04644526  0.98828698  0.35190163     0.05310
C1180       C  0.04840542  0.96497529  0.37646690    -0.03250
Br1181     Br  0.01864346  0.96338912  0.41077692    -0.02940
H1182       H  0.07198847  0.92252826  0.39352113     0.09220
H1183       H  0.07223968  0.00941381  0.31377944     0.07240
Br1184     Br  0.13343747  0.97815733  0.30446225    -0.03370
C1185       C  0.22262248  0.95167643  0.46107003    -0.10000
C1186       C  0.19390824  0.94201597  0.44677656     0.06190
C1187       C  0.16488715  0.95599328  0.45686699    -0.03770
C1188       C  0.16512955  0.98006790  0.48018420    -0.08220
C1189       C  0.19417073  0.99216171  0.49151788     0.05310
C1190       C  0.22292726  0.97749705  0.48219346    -0.03250
Br1191     Br  0.26241009  0.99085294  0.50064681    -0.02940
H1192       H  0.24498151  0.94078127  0.45403336     0.09220
H1193       H  0.14299213  0.99163943  0.48682552     0.07240
Br1194     Br  0.12478612  0.94623331  0.43701101    -0.03370
C1195       C  0.05972059  0.57273977  0.31894220    -0.10000
C1196       C  0.04979835  0.55732452  0.34719518     0.06190
C1197       C  0.06923269  0.56059474  0.37498206    -0.03770
C1198       C  0.09664889  0.57994494  0.37419736    -0.08220
C1199       C  0.10296815  0.59947294  0.34737277     0.05310
C1200       C  0.08416895  0.59534031  0.31945485    -0.03250
Br1201     Br  0.08947299  0.62120739  0.28189365    -0.02940
H1202       H  0.04690893  0.56876341  0.29658293     0.09220
H1203       H  0.11107414  0.58232125  0.39584569     0.07240
Br1204     Br  0.05820299  0.54151573  0.41519316    -0.03370
C1205       C  0.19102409  0.57959841  0.43458539    -0.10000
C1206       C  0.19673050  0.60912724  0.44815482     0.06190
C1207       C  0.20588188  0.61092028  0.48054039    -0.03770
C1208       C  0.20806718  0.58284376  0.49891370    -0.08220
C1209       C  0.19909689  0.55250820  0.48659684     0.05310
C1210       C  0.19378960  0.55165835  0.45222504    -0.03250
Br1211     Br  0.19593711  0.51673730  0.42235316    -0.02940
H1212       H  0.18554716  0.57824093  0.40901469     0.09220
H1213       H  0.21804805  0.58560184  0.52254143     0.07240
Br1214     Br  0.21709432  0.65069318  0.50032656    -0.03370
C1215       C  0.08932009  0.72159653  0.46787551    -0.10000
C1216       C  0.09163846  0.69852532  0.44338627     0.06190
C1217       C  0.06940096  0.67320979  0.44345783    -0.03770
C1218       C  0.04615282  0.67127652  0.46710940    -0.08220
C1219       C  0.04359233  0.69425409  0.49133003     0.05310
C1220       C  0.06511997  0.71995752  0.49111167    -0.03250
Br1221     Br  0.05992470  0.75500335  0.51940051    -0.02940
H1222       H  0.10541821  0.74172431  0.46811356     0.09220
H1223       H  0.02928428  0.65177502  0.46625266     0.07240
Br1224     Br  0.06851873  0.63988243  0.41235263    -0.03370
C1225       C  0.31621866  0.60311226  0.47347205    -0.10000
C1226       C  0.34074941  0.60809702  0.45128418     0.06190
C1227       C  0.36897890  0.59019977  0.45450209    -0.03770
C1228       C  0.36965157  0.56300247  0.47344069    -0.08220
C1229       C  0.34451407  0.55620997  0.49409569     0.05310
C1230       C  0.31855761  0.57789091  0.49585277    -0.03250
Br1231     Br  0.28402251  0.57140914  0.52468012    -0.02940
H1232       H  0.29481394  0.61769730  0.47245963     0.09220
H1233       H  0.39063213  0.54774846  0.47328441     0.07240
Br1234     Br  0.40860709  0.60502852  0.43843068    -0.03370
C1235       C  0.43855157  0.58095794  0.36996572    -0.10000
C1236       C  0.43896459  0.60903386  0.35158242     0.06190
C1237       C  0.46513279  0.61448141  0.33172096    -0.03770
C1238       C  0.48847119  0.59079945  0.32843312    -0.08220
C1239       C  0.48959462  0.56334716  0.34848435     0.05310
C1240       C  0.46534971  0.56078051  0.37181176    -0.03250
Br1241     Br  0.46663062  0.53020224  0.40617462    -0.02940
H1242       H  0.41778688  0.57505326  0.38369501     0.09220
H1243       H  0.50554093  0.59492327  0.30997081     0.07240
Br1244     Br  0.46857867  0.65257901  0.30612200    -0.03370
C1245       C  0.48077949  0.72139618  0.47192352    -0.10000
C1246       C  0.48389682  0.69564367  0.49336466     0.06190
C1247       C  0.45972318  0.67249457  0.49366949    -0.03770
C1248       C  0.43210393  0.67698590  0.47484143    -0.08220
C1249       C  0.42985848  0.70202131  0.45228104     0.05310
C1250       C  0.45475648  0.72435685  0.45090998    -0.03250
Br1251     Br  0.45500201  0.75893834  0.42037393    -0.02940
H1252       H  0.49959715  0.73865241  0.47074457     0.09220
H1253       H  0.41334222  0.65952024  0.47620393     0.07240
Br1254     Br  0.46575913  0.63199431  0.01428363    -0.03370
C1255       C  0.32514533  0.96875543  0.43891208    -0.10000
C1256       C  0.34392099  0.94188099  0.44561425     0.06190
C1257       C  0.36502527  0.94301826  0.47236091    -0.03770
C1258       C  0.36583931  0.97012881  0.49214396    -0.08220
C1259       C  0.34515409  0.99632711  0.48694816     0.05310
C1260       C  0.32605008  0.99588523  0.45815953    -0.03250
Br1261     Br  0.29952146  0.02986331  0.44113834    -0.02940
H1262       H  0.30952130  0.96895724  0.41796292     0.09220
H1263       H  0.38326081  0.97071154  0.51150211     0.07240
Br1264     Br  0.39453783  0.90942770  0.48283216    -0.03370
C1265       C  0.43978384  0.82615891  0.46639153    -0.10000
C1266       C  0.43860961  0.84960855  0.44227367     0.06190
C1267       C  0.46013801  0.87525948  0.44407027    -0.03770
C1268       C  0.48427172  0.87532091  0.46751537    -0.08220
C1269       C  0.48737168  0.85028430  0.48986161     0.05310
C1270       C  0.46401716  0.82606120  0.48980159    -0.03250
Br1271     Br  0.46681215  0.78928949  0.51682416    -0.02940
H1272       H  0.42284108  0.80674271  0.46599018     0.09220
H1273       H  0.50133392  0.89464902  0.46777320     0.07240
Br1274     Br  0.45605765  0.91203562  0.41686597    -0.03370
C1275       C  0.45433913  0.99849498  0.33532749    -0.10000
C1276       C  0.48606090  0.98655872  0.33700179     0.06190
C1277       C  0.48838777  0.95294466  0.33148004    -0.03770
C1278       C  0.46214975  0.93297969  0.33407400    -0.08220
C1279       C  0.43156826  0.94487015  0.33912539     0.05310
C1280       C  0.42751352  0.97837579  0.33833320    -0.03250
Br1281     Br  0.38618422  0.99818241  0.33956438    -0.02940
H1282       H  0.44944067  0.02312291  0.33053108     0.09220
H1283       H  0.46586428  0.90748202  0.33143621     0.07240
Br1284     Br  0.02334300  0.93131536  0.31248236    -0.03370
O1285       O  0.38839057  0.83361492  0.92098085    -0.86200
O1286       O  0.35412932  0.88802001  0.92945708    -0.83240
C1287       C  0.34226280  0.91480666  0.92253192     0.97260
O1288       O  0.32834535  0.91885426  0.89562101    -0.83280
O1289       O  0.37975637  0.92786030  0.85680265    -0.85920
C1290       C  0.40550081  0.92095657  0.84308670     1.01790
O1291       O  0.41013479  0.89272206  0.83319287    -0.78680
O1292       O  0.42019387  0.85880651  0.88867739    -0.78870
C1293       C  0.41455963  0.84732758  0.91603792     1.01740
O1294       O  0.33768917  0.80726723  0.88341058    -0.86190
O1295       O  0.29978998  0.85952490  0.89691668    -0.83260
C1296       C  0.28484772  0.86773855  0.87157854     0.97280
O1297       O  0.29939894  0.87901436  0.84776176    -0.83290
O1298       O  0.34938642  0.89070545  0.80657788    -0.85890
C1299       C  0.35901267  0.86549123  0.79280304     1.01760
O1300       O  0.37123691  0.84278094  0.80872995    -0.78710
O1301       O  0.38525950  0.80501104  0.86173041    -0.78860
C1302       C  0.36019960  0.79132382  0.87140719     1.01720
Cr1303     Cr  0.34583341  0.84858640  0.90469863     1.93740
Cr1304     Cr  0.34064580  0.90121961  0.85280294     1.93210
Cr1305     Cr  0.39401530  0.85078349  0.84967774     1.39100
O1306       O  0.35973856  0.86649677  0.86859292    -1.23950
O1307       O  0.32258898  0.65628500  0.92632007    -0.86200
O1308       O  0.37709426  0.69017731  0.93456383    -0.83240
C1309       C  0.40370737  0.70204950  0.92802084     0.97260
O1310       O  0.40852486  0.71348173  0.90036302    -0.83280
O1311       O  0.41863191  0.66002155  0.86494193    -0.85920
C1312       C  0.41274889  0.63273097  0.85383537     1.01790
O1313       O  0.38502812  0.62583144  0.84395637    -0.78680
O1314       O  0.34890667  0.62224029  0.89714704    -0.78870
C1315       C  0.33699128  0.63000972  0.92367105     1.01740
O1316       O  0.29762423  0.70442645  0.88437429    -0.86190
O1317       O  0.34981899  0.74275060  0.89783952    -0.83260
C1318       C  0.35920374  0.75627196  0.87239757     0.97280
O1319       O  0.37042702  0.74010945  0.84955685    -0.83290
O1320       O  0.38353177  0.68750358  0.81161470    -0.85890
C1321       C  0.35949579  0.67626607  0.79697813     1.01760
O1322       O  0.33689159  0.66364582  0.81222667    -0.78710
O1323       O  0.29639286  0.65576321  0.86426239    -0.78860
C1324       C  0.28225444  0.68137938  0.87249785     1.01720
Cr1325     Cr  0.33837058  0.69729278  0.90769771     1.93740
Cr1326     Cr  0.39220675  0.69878530  0.85769960     1.93210
Cr1327     Cr  0.34256671  0.64483766  0.85582415     1.39100
O1328       O  0.35726086  0.68072725  0.87304220    -1.23950
O1329       O  0.14343521  0.71380790  0.92423897    -0.86200
O1330       O  0.18142246  0.66161218  0.93280801    -0.83240
C1331       C  0.19580398  0.63624375  0.92595436     0.97260
O1332       O  0.20815516  0.63262202  0.89864656    -0.83280
O1333       O  0.15355518  0.62035937  0.86370583    -0.85920
C1334       C  0.12716502  0.62545902  0.84978442     1.01790
O1335       O  0.12115747  0.65282692  0.83783214    -0.78680
O1336       O  0.11128689  0.68993584  0.89046376    -0.78870
C1337       C  0.11674672  0.70098244  0.91812322     1.01740
O1338       O  0.19271639  0.74180402  0.88515372    -0.86190
O1339       O  0.23286265  0.69131142  0.89751472    -0.83260
C1340       C  0.24713585  0.68235223  0.87219913     0.97280
O1341       O  0.23173936  0.67086842  0.84863614    -0.83290
O1342       O  0.17947773  0.65470057  0.80951714    -0.85890
C1343       C  0.17049251  0.67962321  0.79451315     1.01760
O1344       O  0.15931620  0.70308009  0.80983647    -0.78710
O1345       O  0.14559894  0.74280680  0.86139718    -0.78860
C1346       C  0.17030929  0.75702447  0.87178812     1.01720
Cr1347     Cr  0.18655887  0.70072824  0.90693207     1.93740
Cr1348     Cr  0.19159876  0.64748705  0.85612139     1.93210
Cr1349     Cr  0.13714802  0.69635500  0.85143795     1.39100
O1350       O  0.17204698  0.68196774  0.87119938    -1.23950
O1351       O  0.20977405  0.89320137  0.92325598    -0.86200
O1352       O  0.15662028  0.85855136  0.93342530    -0.83240
C1353       C  0.12976913  0.84689615  0.92723243     0.97260
O1354       O  0.12401464  0.83561004  0.89953946    -0.83280
O1355       O  0.11486210  0.88977877  0.86484615    -0.85920
C1356       C  0.12105054  0.91629797  0.85221685     1.01790
O1357       O  0.14735164  0.91977644  0.83836751    -0.78680
O1358       O  0.18220848  0.92653076  0.89335757    -0.78870
C1359       C  0.19507418  0.91937120  0.91992295     1.01740
O1360       O  0.23490669  0.84438612  0.88289898    -0.86190
O1361       O  0.18281262  0.80585549  0.89664057    -0.83260
C1362       C  0.17156658  0.79203572  0.87187793     0.97280
O1363       O  0.15944162  0.80786109  0.84893708    -0.83290
O1364       O  0.14805535  0.86031016  0.80989875    -0.85890
C1365       C  0.17334034  0.86877787  0.79563407     1.01760
O1366       O  0.19622964  0.88101290  0.81122445    -0.78710
O1367       O  0.23545376  0.89339014  0.86372599    -0.78860
C1368       C  0.24992131  0.86790832  0.87172452     1.01720
Cr1369     Cr  0.19453801  0.85137393  0.90616164     1.93740
Cr1370     Cr  0.13937613  0.84988748  0.85660767     1.93210
Cr1371     Cr  0.18951777  0.90242436  0.85312579     1.39100
O1372       O  0.17505927  0.86715962  0.87132661    -1.23950
O1373       O  0.14707553  0.83337566  0.63193785    -0.86200
O1374       O  0.18099902  0.88718408  0.62302540    -0.83240
C1375       C  0.19229234  0.91412896  0.62961715     0.97260
O1376       O  0.20646524  0.91902760  0.65609787    -0.83280
O1377       O  0.15535309  0.92858654  0.69357905    -0.85920
C1378       C  0.12921640  0.92207403  0.70641198     1.01790
O1379       O  0.12423685  0.89428800  0.71679541    -0.78680
O1380       O  0.11507470  0.86038122  0.66244500    -0.78870
C1381       C  0.12078783  0.84752027  0.63578990     1.01740
O1382       O  0.19778829  0.80702044  0.67059941    -0.86190
O1383       O  0.23539356  0.85893675  0.65587583    -0.83260
C1384       C  0.25035933  0.86755832  0.68093067     0.97280
O1385       O  0.23581000  0.87943820  0.70456626    -0.83290
O1386       O  0.18510201  0.89233765  0.74551077    -0.85890
C1387       C  0.17430132  0.86811117  0.76008633     1.01760
O1388       O  0.16190927  0.84522964  0.74459570    -0.78710
O1389       O  0.14963149  0.80636303  0.69096430    -0.78860
C1390       C  0.17462004  0.79175320  0.68189664     1.01720
Cr1391     Cr  0.18952354  0.84817592  0.64832145     1.93740
Cr1392     Cr  0.19432425  0.90184644  0.69900415     1.93210
Cr1393     Cr  0.14056030  0.85229886  0.70220251     1.39100
O1394       O  0.17541096  0.86697553  0.68387015    -1.23950
O1395       O  0.32819471  0.89153282  0.62942128    -0.86200
O1396       O  0.37995357  0.85409268  0.62067403    -0.83240
C1397       C  0.40733086  0.84354434  0.62738123     0.97260
O1398       O  0.41312304  0.83213556  0.65510876    -0.83280
O1399       O  0.42048904  0.88511906  0.69225009    -0.85920
C1400       C  0.41453297  0.91148090  0.70560133     1.01790
O1401       O  0.38741570  0.91602930  0.71743842    -0.78680
O1402       O  0.35452976  0.92378201  0.66098175    -0.78870
C1403       C  0.34266724  0.91760682  0.63373501     1.01740
O1404       O  0.30009068  0.84326389  0.66940345    -0.86190
O1405       O  0.35076881  0.80208516  0.65683031    -0.83260
C1406       C  0.36160364  0.78765626  0.68160340     0.97280
O1407       O  0.37508675  0.80302688  0.70399211    -0.83290
O1408       O  0.38500616  0.85495281  0.74398397    -0.85890
C1409       C  0.35986432  0.86489355  0.75760309     1.01760
O1410       O  0.33744896  0.87772446  0.74165032    -0.78710
O1411       O  0.30005382  0.89212059  0.68851613    -0.78860
C1412       C  0.28531118  0.86705768  0.68058267     1.01720
Cr1413     Cr  0.34126420  0.84861757  0.64709423     1.93740
Cr1414     Cr  0.39551634  0.84529429  0.69782805     1.93210
Cr1415     Cr  0.34578530  0.89937330  0.70050679     1.39100
O1416       O  0.36040432  0.86374305  0.68232104    -1.23950
O1417       O  0.18142987  0.65990640  0.62083492    -0.86200
O1418       O  0.14821299  0.71499498  0.62827238    -0.83240
C1419       C  0.12094768  0.70391834  0.63344401     0.97260
O1420       O  0.11394371  0.69268907  0.66044391    -0.83280
O1421       O  0.11873135  0.65645503  0.71353002    -0.85920
C1422       C  0.12264773  0.62932118  0.70094501     1.01790
O1423       O  0.14954592  0.62140662  0.69012503    -0.78680
O1424       O  0.20413636  0.62800296  0.65577500    -0.78870
C1425       C  0.19307351  0.63294857  0.62779803     1.01740
O1426       O  0.23434598  0.68650631  0.65726834    -0.86190
O1427       O  0.19698414  0.74058020  0.66936769    -0.83260
C1428       C  0.17427213  0.75655178  0.68127299     0.97280
O1429       O  0.14911432  0.74292712  0.69032421    -0.83290
O1430       O  0.15980914  0.70329550  0.74312427    -0.85890
C1431       C  0.17037632  0.67954926  0.75880813     1.01760
O1432       O  0.17871016  0.65430578  0.74424192    -0.78710
O1433       O  0.23217334  0.66583765  0.70590032    -0.78860
C1434       C  0.24817203  0.67707871  0.68284492     1.01720
Cr1435     Cr  0.18918042  0.69905584  0.64708117     1.93740
Cr1436     Cr  0.13844241  0.69776930  0.70047179     1.92710
Cr1437     Cr  0.18981605  0.64541360  0.69801499     1.39100
O1438       O  0.17291429  0.68120628  0.68229560    -1.23950
O1439       O  0.38675334  0.70881174  0.63304837    -0.86200
O1440       O  0.35212430  0.65504593  0.62549520    -0.83240
C1441       C  0.33972422  0.62866933  0.63231336     0.97260
O1442       O  0.32431022  0.62605399  0.65802838    -0.83280
O1443       O  0.37769502  0.61481991  0.69386524    -0.85920
C1444       C  0.40447057  0.62007172  0.70661923     1.01790
O1445       O  0.41025589  0.64710166  0.71904053    -0.78680
O1446       O  0.41917771  0.68288123  0.66511966    -0.78870
C1447       C  0.41332460  0.69538863  0.63809807     1.01740
O1448       O  0.33788665  0.73715257  0.67044428    -0.86190
O1449       O  0.29823209  0.68473751  0.65823764    -0.83260
C1450       C  0.28346982  0.67660419  0.68352278     0.97280
O1451       O  0.29860781  0.66554471  0.70753974    -0.83290
O1452       O  0.35014007  0.65046997  0.74726139    -0.85890
C1453       C  0.35981150  0.67535404  0.76157361     1.01760
O1454       O  0.37252895  0.69784286  0.74610947    -0.78710
O1455       O  0.38545226  0.73712015  0.69359293    -0.78860
C1456       C  0.36109594  0.75216266  0.68275732     1.01720
Cr1457     Cr  0.34441763  0.69493772  0.64973849     1.93740
Cr1458     Cr  0.33927364  0.64205692  0.70080083     1.93210
Cr1459     Cr  0.39404104  0.69048560  0.70453725     1.39100
O1460       O  0.35870305  0.67656704  0.68573076    -1.23950
C1461       C  0.01852010  0.50514483  0.70750311    -0.00280
C1462       C  0.01635212  0.53828955  0.70954115    -0.00290
C1463       C  0.01610794  0.50708024  0.84496024    -0.00280
C1464       C  0.01780067  0.54048171  0.84702553    -0.00290
C1465       C  0.19478673  0.52306204  0.50869175    -0.00280
C1466       C  0.19009825  0.52330299  0.54203154    -0.00290
C1467       C  0.01451369  0.69274488  0.51211693    -0.00280
C1468       C  0.01532073  0.68956995  0.54519734    -0.00290
C1469       C  0.34539888  0.52444588  0.51008931    -0.00280
C1470       C  0.35027629  0.52199537  0.54309434    -0.00290
C1471       C  0.01764339  0.84844782  0.50924901    -0.00280
C1472       C  0.01762927  0.84949036  0.54244625    -0.00290
C1473       C  0.36154886  0.60449719  0.58228109    -0.10000
C1474       C  0.34298546  0.60124912  0.61003306     0.06190
C1475       C  0.33067228  0.57083046  0.61713086    -0.03770
C1476       C  0.32994159  0.54754012  0.59326007    -0.08220
C1477       C  0.34810654  0.55062665  0.56506291     0.05310
C1478       C  0.36663096  0.57854487  0.56178097    -0.03250
Br1479     Br  0.40473359  0.57992681  0.53704980    -0.02940
H1480       H  0.37475786  0.62625855  0.57820879     0.09220
H1481       H  0.31771542  0.52544049  0.59840098     0.07240
Br1482     Br  0.32287555  0.55635985  0.66035050    -0.03370
C1483       C  0.45919030  0.66772277  0.61289480    -0.10000
C1484       C  0.43744847  0.69338115  0.61223190     0.06190
C1485       C  0.43909482  0.71561848  0.58664706    -0.03770
C1486       C  0.46300750  0.71255118  0.56354455    -0.08220
C1487       C  0.48548235  0.68762551  0.56489488     0.05310
C1488       C  0.48283513  0.66464738  0.58965537    -0.03250
Br1489     Br  0.01101700  0.62849265  0.59314939    -0.02940
H1490       H  0.45790224  0.64984198  0.63172297     0.09220
H1491       H  0.46511568  0.73066056  0.54535723     0.07240
Br1492     Br  0.41140135  0.75218694  0.58303082    -0.03370
C1493       C  0.47021672  0.56508557  0.73729877    -0.10000
C1494       C  0.48398113  0.55422443  0.70854668     0.06190
C1495       C  0.46831840  0.56164379  0.67909683    -0.03770
C1496       C  0.44186381  0.58249601  0.67861016    -0.08220
C1497       C  0.42934308  0.59460128  0.70736491     0.05310
C1498       C  0.44202538  0.58338220  0.73667103    -0.03250
Br1499     Br  0.41815099  0.58861802  0.77517520    -0.02940
H1500       H  0.48088664  0.55847148  0.76024635     0.09220
H1501       H  0.43163442  0.58995166  0.65572033     0.07240
Br1502     Br  0.48419044  0.54646178  0.63881538    -0.03370
C1503       C  0.04282380  0.71574904  0.59119358    -0.10000
C1504       C  0.04499313  0.69430873  0.56514121     0.06190
C1505       C  0.07359207  0.67672500  0.56154833    -0.03770
C1506       C  0.09950520  0.68263608  0.58225194    -0.08220
C1507       C  0.09661889  0.70391198  0.60808359     0.05310
C1508       C  0.06796593  0.72024807  0.61273638    -0.03250
Br1509     Br  0.06174523  0.74711697  0.64969851    -0.02940
H1510       H  0.02065427  0.72790765  0.59590483     0.09220
H1511       H  0.12109094  0.66866149  0.57986062     0.07240
Br1512     Br  0.07685888  0.64025387  0.53404679    -0.03370
C1513       C  0.21603728  0.55637417  0.58410863    -0.10000
C1514       C  0.19147035  0.55344806  0.56123372     0.06190
C1515       C  0.16812795  0.57790296  0.55903725    -0.03770
C1516       C  0.16981113  0.60443815  0.57972642    -0.08220
C1517       C  0.19390145  0.60671300  0.60350697     0.05310
C1518       C  0.21717725  0.58226115  0.60518854    -0.03250
Br1519     Br  0.25116580  0.58238079  0.63597009    -0.02940
H1520       H  0.23412194  0.53784696  0.58608449     0.09220
H1521       H  0.15131385  0.62244637  0.57824330     0.07240
Br1522     Br  0.13250089  0.57454728  0.52991534    -0.03370
C1523       C  0.10106396  0.57691009  0.71658084    -0.10000
C1524       C  0.09616745  0.60599371  0.70107746     0.06190
C1525       C  0.06533906  0.61317987  0.68935476    -0.03770
C1526       C  0.04084136  0.59073773  0.69192828    -0.08220
C1527       C  0.04489617  0.56134193  0.70846976     0.05310
C1528       C  0.07568612  0.55623398  0.72260706    -0.03250
Br1529     Br  0.08545085  0.52746351  0.75622980    -0.02940
H1530       H  0.12424581  0.57196707  0.72736269     0.09220
H1531       H  0.01826429  0.59718957  0.68105717     0.07240
Br1532     Br  0.05465858  0.65305690  0.66939888    -0.03370
C1533       C  0.45914738  0.82351987  0.60756175    -0.10000
C1534       C  0.43326809  0.84423280  0.60303991     0.06190
C1535       C  0.43428196  0.86606730  0.57691117    -0.03770
C1536       C  0.46131720  0.86749219  0.55713399    -0.08220
C1537       C  0.48755487  0.84691534  0.56217889     0.05310
C1538       C  0.48560437  0.82454145  0.58764371    -0.03250
Br1539     Br  0.01719888  0.79294505  0.59606101    -0.02940
H1540       H  0.45887939  0.80610335  0.62688775     0.09220
H1541       H  0.46212929  0.88537617  0.53831866     0.07240
Br1542     Br  0.40069224  0.89584645  0.56769747    -0.03370
C1543       C  0.37066574  0.96390188  0.61024222    -0.10000
C1544       C  0.34627508  0.94127932  0.60727379     0.06190
C1545       C  0.32756637  0.94149670  0.57877104    -0.03770
C1546       C  0.33002750  0.96687941  0.55691622    -0.08220
C1547       C  0.35305906  0.99076330  0.56104435     0.05310
C1548       C  0.37499328  0.98746395  0.58698427    -0.03250
Br1549     Br  0.41114011  0.51474484  0.59275930    -0.02940
H1550       H  0.38697264  0.96305512  0.63064334     0.09220
H1551       H  0.31357339  0.96803410  0.53689109     0.07240
Br1552     Br  0.29923666  0.90776016  0.56729414    -0.03370
C1553       C  0.46503071  0.93389713  0.68556552    -0.10000
C1554       C  0.43945185  0.93691306  0.70660161     0.06190
C1555       C  0.43867473  0.96402270  0.72698289    -0.03770
C1556       C  0.46415877  0.98584650  0.72719650    -0.08220
C1557       C  0.48965849  0.98318137  0.70548796     0.05310
C1558       C  0.48930975  0.95642553  0.68447793    -0.03250
Br1559     Br  0.02110174  0.94742852  0.65336481    -0.02940
H1560       H  0.46610992  0.91378990  0.66920961     0.09220
H1561       H  0.46428961  0.00423224  0.74529685     0.07240
Br1562     Br  0.40396140  0.97295354  0.75526028    -0.03370
C1563       C  0.07453735  0.87478228  0.60885070    -0.10000
C1564       C  0.09681310  0.84939330  0.60921333     0.06190
C1565       C  0.09625817  0.82745350  0.58335719    -0.03770
C1566       C  0.07212010  0.82958759  0.55998819    -0.08220
C1567       C  0.04781508  0.85252737  0.56189696     0.05310
C1568       C  0.05074547  0.87672671  0.58495207    -0.03250
Br1569     Br  0.02439446  0.91407251  0.58152397    -0.02940
H1570       H  0.07584800  0.89338102  0.62689994     0.09220
H1571       H  0.07153105  0.81249695  0.54093222     0.07240
Br1572     Br  0.12579390  0.79247575  0.57923322    -0.03370
C1573       C  0.17280630  0.96795177  0.61432134    -0.10000
C1574       C  0.18924862  0.94012630  0.60619856     0.06190
C1575       C  0.20230901  0.93758796  0.57574195    -0.03770
C1576       C  0.20363914  0.96451660  0.55625291    -0.08220
C1577       C  0.18673910  0.99307341  0.56289793     0.05310
C1578       C  0.16936069  0.99316572  0.59230174    -0.03250
Br1579     Br  0.13881792  0.52503969  0.60435458    -0.02940
H1580       H  0.16156686  0.96952750  0.63751599     0.09220
H1581       H  0.21943991  0.96204955  0.53686028     0.07240
Br1582     Br  0.21886890  0.89795875  0.55971389    -0.03370
C1583       C  0.10030118  0.97059357  0.68582751    -0.10000
C1584       C  0.10366773  0.94648180  0.70923358     0.06190
C1585       C  0.08038284  0.94382202  0.73321767    -0.03770
C1586       C  0.05354574  0.96372979  0.73240211    -0.08220
C1587       C  0.04960454  0.98742705  0.70856025     0.05310
C1588       C  0.07351997  0.99081856  0.68508090    -0.03250
Br1589     Br  0.06814391  0.51838861  0.64845549    -0.02940
H1590       H  0.11739254  0.97239777  0.66673467     0.09220
H1591       H  0.03549432  0.96088348  0.75054541     0.07240
Br1592     Br  0.08452069  0.91341280  0.76777238    -0.03370
C1593       C  0.07839926  0.82608353  0.94478735    -0.10000
C1594       C  0.10407867  0.84598775  0.95155291     0.06190
C1595       C  0.10247850  0.86568586  0.97914631    -0.03770
C1596       C  0.07393756  0.86770719  0.99654841    -0.08220
C1597       C  0.04798922  0.84738323  0.98973261     0.05310
C1598       C  0.05121907  0.82623584  0.96337260    -0.03250
Br1599     Br  0.02057050  0.79608963  0.94950932    -0.02940
H1600       H  0.07931153  0.80992596  0.92445061     0.09220
H1601       H  0.07244131  0.88495506  0.01581294     0.07240
Br1602     Br  0.13843399  0.88842552  0.99609721    -0.03370
C1603       C  0.07257201  0.94167910  0.87597959    -0.10000
C1604       C  0.09723187  0.94286254  0.85328944     0.06190
C1605       C  0.09831724  0.96958390  0.83251784    -0.03770
C1606       C  0.07250666  0.99094369  0.83133470    -0.08220
C1607       C  0.04644530  0.98828697  0.85190161     0.05310
C1608       C  0.04840545  0.96497528  0.87646689    -0.03250
Br1609     Br  0.01864347  0.96338910  0.91077688    -0.02940
H1610       H  0.07198849  0.92252825  0.89352112     0.09220
H1611       H  0.07223975  0.00941384  0.81377946     0.07240
Br1612     Br  0.13343759  0.97815744  0.80446239    -0.03370
C1613       C  0.22262252  0.95167640  0.96107002    -0.10000
C1614       C  0.19390828  0.94201595  0.94677655     0.06190
C1615       C  0.16488719  0.95599326  0.95686699    -0.03770
C1616       C  0.16512960  0.98006788  0.98018421    -0.08220
C1617       C  0.19417078  0.99216168  0.99151788     0.05310
C1618       C  0.22292731  0.97749702  0.98219345    -0.03250
Br1619     Br  0.26241015  0.99085291  0.00064679    -0.02940
H1620       H  0.24498154  0.94078125  0.95403335     0.09220
H1621       H  0.14299217  0.99163940  0.98682553     0.07240
Br1622     Br  0.12478616  0.94623330  0.93701101    -0.03370
C1623       C  0.05972057  0.57273980  0.81894220    -0.10000
C1624       C  0.04979837  0.55732453  0.84719518     0.06190
C1625       C  0.06923276  0.56059471  0.87498203    -0.03770
C1626       C  0.09664895  0.57994492  0.87419731    -0.08220
C1627       C  0.10296815  0.59947296  0.84737274     0.05310
C1628       C  0.08416889  0.59534037  0.81945485    -0.03250
Br1629     Br  0.08947279  0.62120756  0.78189370    -0.02940
H1630       H  0.04690892  0.56876342  0.79658293     0.09220
H1631       H  0.11107423  0.58232120  0.89584562     0.07240
Br1632     Br  0.05820314  0.54151567  0.91519314    -0.03370
C1633       C  0.19102405  0.57959840  0.93458539    -0.10000
C1634       C  0.19673046  0.60912722  0.94815483     0.06190
C1635       C  0.20588178  0.61092026  0.98054042    -0.03770
C1636       C  0.20806703  0.58284373  0.99891374    -0.08220
C1637       C  0.19909675  0.55250818  0.98659686     0.05310
C1638       C  0.19378950  0.55165833  0.95222505    -0.03250
Br1639     Br  0.19593693  0.51673728  0.92235317    -0.02940
H1640       H  0.18554715  0.57824092  0.90901469     0.09220
H1641       H  0.21804788  0.58560181  0.02254148     0.07240
Br1642     Br  0.21709421  0.65069314  0.00032662    -0.03370
C1643       C  0.08932006  0.72159650  0.96787550    -0.10000
C1644       C  0.09163845  0.69852530  0.94338626     0.06190
C1645       C  0.06940097  0.67320975  0.94345782    -0.03770
C1646       C  0.04615281  0.67127648  0.96710937    -0.08220
C1647       C  0.04359230  0.69425404  0.99133000     0.05310
C1648       C  0.06511994  0.71995748  0.99111165    -0.03250
Br1649     Br  0.05992464  0.75500329  0.01940050    -0.02940
H1650       H  0.10541818  0.74172429  0.96811356     0.09220
H1651       H  0.02928428  0.65177497  0.96625261     0.07240
Br1652     Br  0.06851879  0.63988237  0.91235263    -0.03370
C1653       C  0.31621860  0.60311228  0.97347201    -0.10000
C1654       C  0.34074937  0.60809705  0.95128417     0.06190
C1655       C  0.36897885  0.59019980  0.95450210    -0.03770
C1656       C  0.36965150  0.56300248  0.97344068    -0.08220
C1657       C  0.34451398  0.55620998  0.99409567     0.05310
C1658       C  0.31855753  0.57789092  0.99585273    -0.03250
Br1659     Br  0.28402241  0.57140916  0.02468005    -0.02940
H1660       H  0.29481388  0.61769733  0.97245957     0.09220
H1661       H  0.39063206  0.54774847  0.97328441     0.07240
Br1662     Br  0.40860706  0.60502857  0.93843077    -0.03370
C1663       C  0.43855164  0.58095804  0.86996581    -0.10000
C1664       C  0.43896460  0.60903389  0.85158241     0.06190
C1665       C  0.46513276  0.61448139  0.83172088    -0.03770
C1666       C  0.48847115  0.59079942  0.82843306    -0.08220
C1667       C  0.48959463  0.56334719  0.84848437     0.05310
C1668       C  0.46534978  0.56078062  0.87181186    -0.03250
Br1669     Br  0.46663077  0.53020243  0.90617479    -0.02940
H1670       H  0.41778697  0.57505338  0.88369514     0.09220
H1671       H  0.50554085  0.59492317  0.80997068     0.07240
Br1672     Br  0.46857859  0.65257893  0.80612182    -0.03370
C1673       C  0.48077953  0.72139610  0.97192349    -0.10000
C1674       C  0.48389680  0.69564361  0.99336465     0.06190
C1675       C  0.45972312  0.67249455  0.99366949    -0.03770
C1676       C  0.43210388  0.67698593  0.97484144    -0.08220
C1677       C  0.42985848  0.70202132  0.95228103     0.05310
C1678       C  0.45475652  0.72435680  0.95090994    -0.03250
Br1679     Br  0.45500213  0.75893825  0.92037385    -0.02940
H1680       H  0.49959721  0.73865230  0.97074452     0.09220
H1681       H  0.41334213  0.65952031  0.97620396     0.07240
Br1682     Br  0.46575924  0.63199434  0.51428365    -0.03370
C1683       C  0.32514541  0.96875545  0.93891207    -0.10000
C1684       C  0.34392106  0.94188100  0.94561423     0.06190
C1685       C  0.36502532  0.94301825  0.97236092    -0.03770
C1686       C  0.36583937  0.97012880  0.99214397    -0.08220
C1687       C  0.34515416  0.99632710  0.98694818     0.05310
C1688       C  0.32605015  0.99588524  0.95815954    -0.03250
Br1689     Br  0.29952152  0.02986331  0.94113835    -0.02940
H1690       H  0.30952138  0.96895727  0.91796291     0.09220
H1691       H  0.38326085  0.97071151  0.01150213     0.07240
Br1692     Br  0.39453786  0.90942766  0.98283218    -0.03370
C1693       C  0.43978390  0.82615884  0.96639143    -0.10000
C1694       C  0.43860967  0.84960850  0.94227359     0.06190
C1695       C  0.46013807  0.87525943  0.94407022    -0.03770
C1696       C  0.48427179  0.87532082  0.96751532    -0.08220
C1697       C  0.48737174  0.85028419  0.98986153     0.05310
C1698       C  0.46401722  0.82606110  0.98980150    -0.03250
Br1699     Br  0.46681217  0.78928938  0.01682406    -0.02940
H1700       H  0.42284113  0.80674264  0.96599006     0.09220
H1701       H  0.50133399  0.89464893  0.96777317     0.07240
Br1702     Br  0.45605768  0.91203560  0.91686597    -0.03370
C1703       C  0.45433921  0.99849494  0.83532716    -0.10000
C1704       C  0.48606097  0.98655867  0.83700164     0.06190
C1705       C  0.48838785  0.95294459  0.83148001    -0.03770
C1706       C  0.46214982  0.93297964  0.83407398    -0.08220
C1707       C  0.43156831  0.94487014  0.83912520     0.05310
C1708       C  0.42751358  0.97837577  0.83833282    -0.03250
Br1709     Br  0.38618427  0.99818239  0.83956371    -0.02940
H1710       H  0.44944080  0.02312287  0.83053067     0.09220
H1711       H  0.46586435  0.90748195  0.83143632     0.07240
Br1712     Br  0.02334306  0.93131529  0.81248240    -0.03370
O1713       O  0.88839060  0.33361492  0.42098080    -0.86200
O1714       O  0.85412936  0.38802003  0.42945705    -0.83240
C1715       C  0.84226285  0.41480668  0.42253189     0.97260
O1716       O  0.82834541  0.41885430  0.39562098    -0.83280
O1717       O  0.87975640  0.42786031  0.35680256    -0.85920
C1718       C  0.90550082  0.42095657  0.34308659     1.01790
O1719       O  0.91013479  0.39272204  0.33319278    -0.78680
O1720       O  0.92019390  0.35880650  0.38867732    -0.78870
C1721       C  0.91455966  0.34732757  0.41603785     1.01740
O1722       O  0.83768918  0.30726724  0.38341056    -0.86190
O1723       O  0.79979000  0.35952492  0.39691668    -0.83260
C1724       C  0.78484774  0.36773858  0.37157855     0.97280
O1725       O  0.79939894  0.37901439  0.34776177    -0.83290
O1726       O  0.84938639  0.39070545  0.30657784    -0.85890
C1727       C  0.85901261  0.36549122  0.29280301     1.01760
O1728       O  0.87123687  0.34278093  0.30872992    -0.78710
O1729       O  0.88525949  0.30501104  0.36173037    -0.78860
C1730       C  0.86019960  0.29132382  0.37140717     1.01720
Cr1731     Cr  0.84583343  0.34858641  0.40469860     1.93740
Cr1732     Cr  0.84064582  0.40121962  0.35280291     1.93210
Cr1733     Cr  0.89401529  0.35078349  0.34967768     1.39100
O1734       O  0.85973857  0.36649678  0.36859288    -1.23950
O1735       O  0.82258900  0.15628500  0.42632007    -0.86200
O1736       O  0.87709428  0.19017732  0.43456382    -0.83240
C1737       C  0.90370739  0.20204951  0.42802082     0.97260
O1738       O  0.90852487  0.21348175  0.40036301    -0.83280
O1739       O  0.91863193  0.16002156  0.36494192    -0.85920
C1740       C  0.91274892  0.13273098  0.35383537     1.01790
O1741       O  0.88502814  0.12583145  0.34395637    -0.78680
O1742       O  0.84890669  0.12224030  0.39714704    -0.78870
C1743       C  0.83699130  0.13000973  0.42367104     1.01740
O1744       O  0.79762425  0.20442645  0.38437428    -0.86190
O1745       O  0.84981900  0.24275061  0.39783951    -0.83260
C1746       C  0.85920374  0.25627197  0.37239756     0.97280
O1747       O  0.87042702  0.24010946  0.34955683    -0.83290
O1748       O  0.88353178  0.18750359  0.31161468    -0.85890
C1749       C  0.85949579  0.17626607  0.29697813     1.01760
O1750       O  0.83689160  0.16364582  0.31222666    -0.78710
O1751       O  0.79639288  0.15576322  0.36426238    -0.78860
C1752       C  0.78225446  0.18137939  0.37249784     1.01720
Cr1753     Cr  0.83837060  0.19729279  0.40769770     1.93740
Cr1754     Cr  0.89220676  0.19878531  0.35769958     1.93210
Cr1755     Cr  0.84256673  0.14483767  0.35582415     1.39100
O1756       O  0.85726088  0.18072726  0.37304219    -1.23950
O1757       O  0.64343523  0.21380792  0.42423897    -0.86200
O1758       O  0.68142249  0.16161220  0.43280800    -0.83240
C1759       C  0.69580401  0.13624377  0.42595435     0.97260
O1760       O  0.70815518  0.13262204  0.39864656    -0.83280
O1761       O  0.65355520  0.12035938  0.36370584    -0.85920
C1762       C  0.62716503  0.12545903  0.34978443     1.01790
O1763       O  0.62115748  0.15282693  0.33783215    -0.78680
O1764       O  0.61128691  0.18993586  0.39046376    -0.78870
C1765       C  0.61674674  0.20098246  0.41812322     1.01740
O1766       O  0.69271640  0.24180404  0.38515371    -0.86190
O1767       O  0.73286267  0.19131144  0.39751470    -0.83260
C1768       C  0.74713586  0.18235224  0.37219912     0.97280
O1769       O  0.73173938  0.17086843  0.34863613    -0.83290
O1770       O  0.67947774  0.15470057  0.30951714    -0.85890
C1771       C  0.67049251  0.17962320  0.29451314     1.01760
O1772       O  0.65931621  0.20308009  0.30983646    -0.78710
O1773       O  0.64559896  0.24280681  0.36139717    -0.78860
C1774       C  0.67030930  0.25702449  0.37178812     1.01720
Cr1775     Cr  0.68655889  0.20072826  0.40693206     1.93740
Cr1776     Cr  0.69159877  0.14748706  0.35612139     1.93210
Cr1777     Cr  0.63714803  0.19635501  0.35143794     1.39100
O1778       O  0.67204700  0.18196775  0.37119937    -1.23950
O1779       O  0.70977407  0.39320138  0.42325602    -0.86200
O1780       O  0.65662030  0.35855138  0.43342535    -0.83240
C1781       C  0.62976915  0.34689618  0.42723248     0.97260
O1782       O  0.62401465  0.33561008  0.39953951    -0.83280
O1783       O  0.61486213  0.38977883  0.36484622    -0.85920
C1784       C  0.62105058  0.41629803  0.35221692     1.01790
O1785       O  0.64735166  0.41977647  0.33836754    -0.78680
O1786       O  0.68220851  0.42653078  0.39335760    -0.78870
C1787       C  0.69507421  0.41937122  0.41992298     1.01740
O1788       O  0.73490671  0.34438614  0.38289901    -0.86190
O1789       O  0.68281264  0.30585551  0.39664059    -0.83260
C1790       C  0.67156658  0.29203575  0.37187795     0.97280
O1791       O  0.65944160  0.30786112  0.34893711    -0.83290
O1792       O  0.64805534  0.36031020  0.30989880    -0.85890
C1793       C  0.67334033  0.36877789  0.29563411     1.01760
O1794       O  0.69622964  0.38101291  0.31122448    -0.78710
O1795       O  0.73545378  0.39339016  0.36372601    -0.78860
C1796       C  0.74992133  0.36790834  0.37172455     1.01720
Cr1797     Cr  0.69453802  0.35137394  0.40616168     1.93740
Cr1798     Cr  0.63937613  0.34988752  0.35660772     1.93210
Cr1799     Cr  0.68951778  0.40242438  0.35312582     1.39100
O1800       O  0.67505928  0.36715965  0.37132665    -1.23950
O1801       O  0.64707542  0.33337563  0.13193791    -0.86200
O1802       O  0.68099889  0.38718407  0.12302543    -0.83240
C1803       C  0.69229226  0.41412893  0.12961717     0.97260
O1804       O  0.70646521  0.41902754  0.15609788    -0.83280
O1805       O  0.65535310  0.42858652  0.19357909    -0.85920
C1806       C  0.62921642  0.42207403  0.20641205     1.01790
O1807       O  0.62423682  0.39428800  0.21679545    -0.78680
O1808       O  0.61507462  0.36038119  0.16244507    -0.78870
C1809       C  0.62078773  0.34752025  0.13578997     1.01740
O1810       O  0.69778822  0.30702042  0.17059941    -0.86190
O1811       O  0.73539347  0.35893674  0.15587581    -0.83260
C1812       C  0.75035925  0.36755826  0.18093066     0.97280
O1813       O  0.73580994  0.37943811  0.20456627    -0.83290
O1814       O  0.68510200  0.39233764  0.24551080    -0.85890
C1815       C  0.67430131  0.36811117  0.26008637     1.01760
O1816       O  0.66190924  0.34522964  0.24459575    -0.78710
O1817       O  0.64963145  0.30636300  0.19096436    -0.78860
C1818       C  0.67461998  0.29175318  0.18189667     1.01720
Cr1819     Cr  0.68952345  0.34817590  0.14832147     1.93740
Cr1820     Cr  0.69432422  0.40184639  0.19900417     1.93210
Cr1821     Cr  0.64056025  0.35229885  0.20220257     1.39100
O1822       O  0.67541090  0.36697550  0.18387018    -1.23950
O1823       O  0.82819459  0.39153281  0.12942127    -0.86200
O1824       O  0.87995346  0.35409270  0.12067400    -0.83240
C1825       C  0.90733073  0.34354434  0.12738120     0.97260
O1826       O  0.91312290  0.33213553  0.15510871    -0.83280
O1827       O  0.92048890  0.38511901  0.19225006    -0.85920
C1828       C  0.91453287  0.41148085  0.20560131     1.01790
O1829       O  0.88741560  0.41602928  0.21743839    -0.78680
O1830       O  0.85452964  0.42378199  0.16098173    -0.78870
C1831       C  0.84266712  0.41760681  0.13373499     1.01740
O1832       O  0.80009059  0.34326385  0.16940342    -0.86190
O1833       O  0.85076873  0.30208515  0.15683026    -0.83260
C1834       C  0.86160354  0.28765625  0.18160336     0.97280
O1835       O  0.87508661  0.30302687  0.20399209    -0.83290
O1836       O  0.88500606  0.35495278  0.24398393    -0.85890
C1837       C  0.85986423  0.36489352  0.25760306     1.01760
O1838       O  0.83744886  0.37772443  0.24165031    -0.78710
O1839       O  0.80005372  0.39212055  0.18851611    -0.78860
C1840       C  0.78531109  0.36705763  0.18058265     1.01720
Cr1841     Cr  0.84126410  0.34861756  0.14709419     1.93740
Cr1842     Cr  0.89551621  0.34529426  0.19782802     1.93210
Cr1843     Cr  0.84578519  0.39937328  0.20050677     1.39100
O1844       O  0.86040421  0.36374303  0.18232101    -1.23950
O1845       O  0.68142986  0.15990638  0.12083492    -0.86200
O1846       O  0.64821298  0.21499497  0.12827238    -0.83240
C1847       C  0.62094768  0.20391832  0.13344400     0.97260
O1848       O  0.61394370  0.19268904  0.16044390    -0.83280
O1849       O  0.61873134  0.15645498  0.21353000    -0.85920
C1850       C  0.62264774  0.12932114  0.20094498     1.01790
O1851       O  0.64954593  0.12140659  0.19012501    -0.78680
O1852       O  0.70413637  0.12800295  0.15577500    -0.78870
C1853       C  0.69307351  0.13294855  0.12779803     1.01740
O1854       O  0.73434596  0.18650631  0.15726834    -0.86190
O1855       O  0.69698410  0.24058019  0.16936770    -0.83260
C1856       C  0.67427209  0.25655176  0.18127300     0.97280
O1857       O  0.64911428  0.24292709  0.19032421    -0.83290
O1858       O  0.65980911  0.20329547  0.24312426    -0.85890
C1859       C  0.67037631  0.17954925  0.25880813     1.01760
O1860       O  0.67871016  0.15430576  0.24424192    -0.78710
O1861       O  0.73217333  0.16583765  0.20590032    -0.78860
C1862       C  0.74817202  0.17707871  0.18284492     1.01720
Cr1863     Cr  0.68918041  0.19905583  0.14708117     1.93740
Cr1864     Cr  0.63844239  0.19776926  0.20047178     1.92710
Cr1865     Cr  0.68981606  0.14541359  0.19801499     1.39100
O1866       O  0.67291428  0.18120626  0.18229560    -1.23950
O1867       O  0.88675332  0.20881176  0.13304835    -0.86200
O1868       O  0.85212431  0.15504592  0.12549519    -0.83240
C1869       C  0.83972422  0.12866933  0.13231335     0.97260
O1870       O  0.82431022  0.12605399  0.15802837    -0.83280
O1871       O  0.87769502  0.11481993  0.19386524    -0.85920
C1872       C  0.90447056  0.12007176  0.20661923     1.01790
O1873       O  0.91025589  0.14710171  0.21904052    -0.78680
O1874       O  0.91917769  0.18288128  0.16511966    -0.78870
C1875       C  0.91332458  0.19538868  0.13809806     1.01740
O1876       O  0.83788659  0.23715255  0.17044424    -0.86190
O1877       O  0.79823207  0.18473748  0.15823762    -0.83260
C1878       C  0.78346981  0.17660418  0.18352277     0.97280
O1879       O  0.79860781  0.16554472  0.20753973    -0.83290
O1880       O  0.85014007  0.15046999  0.24726138    -0.85890
C1881       C  0.85981148  0.17535405  0.26157360     1.01760
O1882       O  0.87252892  0.19784289  0.24610946    -0.78710
O1883       O  0.88545219  0.23712017  0.19359291    -0.78860
C1884       C  0.86109587  0.25216266  0.18275728     1.01720
Cr1885     Cr  0.84441761  0.19493771  0.14973847     1.93740
Cr1886     Cr  0.83927363  0.14205693  0.20080083     1.93210
Cr1887     Cr  0.89404101  0.19048564  0.20453723     1.39100
O1888       O  0.85870303  0.17656706  0.18573074    -1.23950
C1889       C  0.51852016  0.00514475  0.20750318    -0.00280
C1890       C  0.51635215  0.03828949  0.20954117    -0.00290
C1891       C  0.51610797  0.00708023  0.34496023    -0.00280
C1892       C  0.51780069  0.04048170  0.34702554    -0.00290
C1893       C  0.69478671  0.02306201  0.00869174    -0.00280
C1894       C  0.69009822  0.02330296  0.04203153    -0.00290
C1895       C  0.51451370  0.19274494  0.01211691    -0.00280
C1896       C  0.51532074  0.18957000  0.04519732    -0.00290
C1897       C  0.84539888  0.02444588  0.01008931    -0.00280
C1898       C  0.85027628  0.02199537  0.04309434    -0.00290
C1899       C  0.51764335  0.34844791  0.00924902    -0.00280
C1900       C  0.51762920  0.34949046  0.04244626    -0.00290
C1901       C  0.86154886  0.10449718  0.08228109    -0.10000
C1902       C  0.84298546  0.10124911  0.11003306     0.06190
C1903       C  0.83067226  0.07083046  0.11713085    -0.03770
C1904       C  0.82994157  0.04754013  0.09326006    -0.08220
C1905       C  0.84810653  0.05062665  0.06506291     0.05310
C1906       C  0.86663096  0.07854486  0.06178097    -0.03250
Br1907     Br  0.90473360  0.07992679  0.03704982    -0.02940
H1908       H  0.87475787  0.12625854  0.07820879     0.09220
H1909       H  0.81771540  0.02544050  0.09840097     0.07240
Br1910     Br  0.82287554  0.05635985  0.16035049    -0.03370
C1911       C  0.95919032  0.16772284  0.11289483    -0.10000
C1912       C  0.93744848  0.19338121  0.11223190     0.06190
C1913       C  0.93909482  0.21561854  0.08664707    -0.03770
C1914       C  0.96300752  0.21255125  0.06354456    -0.08220
C1915       C  0.98548239  0.18762558  0.06489491     0.05310
C1916       C  0.98283516  0.16464747  0.08965541    -0.03250
Br1917     Br  0.51101699  0.12849267  0.09314934    -0.02940
H1918       H  0.95790226  0.14984206  0.13172300     0.09220
H1919       H  0.96511569  0.23066062  0.04535725     0.07240
Br1920     Br  0.91140132  0.25218698  0.08303080    -0.03370
C1921       C  0.97021669  0.06508557  0.23729877    -0.10000
C1922       C  0.98398112  0.05422447  0.20854668     0.06190
C1923       C  0.96831841  0.06164386  0.17909683    -0.03770
C1924       C  0.94186383  0.08249608  0.17861016    -0.08220
C1925       C  0.92934308  0.09460132  0.20736491     0.05310
C1926       C  0.94202536  0.08338222  0.23667103    -0.03250
Br1927     Br  0.91815096  0.08861804  0.27517520    -0.02940
H1928       H  0.98088660  0.05847146  0.26024635     0.09220
H1929       H  0.93163445  0.08995175  0.15572033     0.07240
Br1930     Br  0.98419048  0.04646188  0.13881537    -0.03370
C1931       C  0.54282383  0.21574909  0.09119354    -0.10000
C1932       C  0.54499314  0.19430876  0.06514119     0.06190
C1933       C  0.57359206  0.17672500  0.06154832    -0.03770
C1934       C  0.59950519  0.18263605  0.08225194    -0.08220
C1935       C  0.59661890  0.20391198  0.10808357     0.05310
C1936       C  0.56796596  0.22024811  0.11273635    -0.03250
Br1937     Br  0.56174529  0.24711705  0.14969844    -0.02940
H1938       H  0.52065431  0.22790772  0.09590478     0.09220
H1939       H  0.62109091  0.16866144  0.07986064     0.07240
Br1940     Br  0.57685884  0.14025387  0.03404678    -0.03370
C1941       C  0.71603723  0.05637412  0.08410865    -0.10000
C1942       C  0.69147032  0.05344803  0.06123373     0.06190
C1943       C  0.66812793  0.07790294  0.05903725    -0.03770
C1944       C  0.66981112  0.10443813  0.07972642    -0.08220
C1945       C  0.69390144  0.10671297  0.10350698     0.05310
C1946       C  0.71717721  0.08226110  0.10518857    -0.03250
Br1947     Br  0.75116573  0.08238070  0.13597015    -0.02940
H1948       H  0.73412188  0.03784690  0.08608452     0.09220
H1949       H  0.65131386  0.12244637  0.07824329     0.07240
Br1950     Br  0.63250088  0.07454729  0.02991532    -0.03370
C1951       C  0.60106399  0.07691006  0.21658083    -0.10000
C1952       C  0.59616747  0.10599366  0.20107742     0.06190
C1953       C  0.56533909  0.11317980  0.18935471    -0.03770
C1954       C  0.54084139  0.09073764  0.19192823    -0.08220
C1955       C  0.54489620  0.06134187  0.20846976     0.05310
C1956       C  0.57568616  0.05623394  0.22260706    -0.03250
Br1957     Br  0.58545091  0.02746354  0.25622986    -0.02940
H1958       H  0.62424584  0.07196706  0.22736269     0.09220
H1959       H  0.51826433  0.09718946  0.18105711     0.07240
Br1960     Br  0.55465859  0.15305681  0.16939879    -0.03370
C1961       C  0.95914728  0.32351991  0.10756174    -0.10000
C1962       C  0.93326797  0.34423282  0.10303988     0.06190
C1963       C  0.93428184  0.36606731  0.07691114    -0.03770
C1964       C  0.96131709  0.36749223  0.05713398    -0.08220
C1965       C  0.98755478  0.34691541  0.06217891     0.05310
C1966       C  0.98560428  0.32454152  0.08764372    -0.03250
Br1967     Br  0.51719881  0.29294510  0.09606098    -0.02940
H1968       H  0.95887929  0.30610340  0.12688775     0.09220
H1969       H  0.96212917  0.38537621  0.03831865     0.07240
Br1970     Br  0.90069207  0.39584640  0.06769740    -0.03370
C1971       C  0.87066565  0.46390187  0.11024222    -0.10000
C1972       C  0.84627498  0.44127931  0.10727377     0.06190
C1973       C  0.82756631  0.44149667  0.07877100    -0.03770
C1974       C  0.83002745  0.46687938  0.05691619    -0.08220
C1975       C  0.85305901  0.49076328  0.06104433     0.05310
C1976       C  0.87499320  0.48746393  0.08698427    -0.03250
Br1977     Br  0.91114009  0.01474486  0.09275934    -0.02940
H1978       H  0.88697253  0.46305510  0.13064335     0.09220
H1979       H  0.81357337  0.46803407  0.03689104     0.07240
Br1980     Br  0.79923664  0.40776012  0.06729407    -0.03370
C1981       C  0.96503096  0.43389666  0.18556597    -0.10000
C1982       C  0.93945180  0.43691295  0.20660165     0.06190
C1983       C  0.93867451  0.46402283  0.22698260    -0.03770
C1984       C  0.96415861  0.48584656  0.22719626    -0.08220
C1985       C  0.98965861  0.48318112  0.20548808     0.05310
C1986       C  0.98931011  0.45642495  0.18447844    -0.03250
Br1987     Br  0.52110251  0.44742718  0.15336594    -0.02940
H1988       H  0.96611035  0.41378920  0.16921037     0.09220
H1989       H  0.96428926  0.50423247  0.24529642     0.07240
Br1990     Br  0.90396087  0.47295412  0.25525946    -0.03370
C1991       C  0.57453719  0.37478224  0.10885086    -0.10000
C1992       C  0.59681298  0.34939330  0.10921340     0.06190
C1993       C  0.59625809  0.32745357  0.08335721    -0.03770
C1994       C  0.57212003  0.32958770  0.05998820    -0.08220
C1995       C  0.54781499  0.35252746  0.06189701     0.05310
C1996       C  0.55074531  0.37672671  0.08495223    -0.03250
Br1997     Br  0.52439415  0.41407245  0.08152437    -0.02940
H1998       H  0.57584780  0.39338092  0.12690017     0.09220
H1999       H  0.57153099  0.31249709  0.04093219     0.07240
Br2000     Br  0.62579387  0.29247587  0.07923313    -0.03370
C2001       C  0.67280622  0.46795174  0.11432136    -0.10000
C2002       C  0.68924855  0.44012628  0.10619859     0.06190
C2003       C  0.70230896  0.43758794  0.07574199    -0.03770
C2004       C  0.70363909  0.46451658  0.05625295    -0.08220
C2005       C  0.68673904  0.49307339  0.06289795     0.05310
C2006       C  0.66936061  0.49316569  0.09230176    -0.03250
Br2007     Br  0.63881779  0.02503958  0.10435446    -0.02940
H2008       H  0.66156678  0.46952748  0.13751601     0.09220
H2009       H  0.71943989  0.46204954  0.03686032     0.07240
Br2010     Br  0.71886887  0.39795874  0.05971394    -0.03370
C2011       C  0.60030120  0.47059356  0.18582757    -0.10000
C2012       C  0.60366782  0.44648185  0.20923371     0.06190
C2013       C  0.58038305  0.44382217  0.23321792    -0.03770
C2014       C  0.55354593  0.46372993  0.23240238    -0.08220
C2015       C  0.54960464  0.48742708  0.20856043     0.05310
C2016       C  0.57351999  0.49081853  0.18508099    -0.03250
Br2017     Br  0.56814381  0.01838844  0.14845545    -0.02940
H2018       H  0.61739247  0.47239766  0.16673464     0.09220
H2019       H  0.53549458  0.46088368  0.25054575     0.07240
Br2020     Br  0.58452108  0.41341309  0.26777272    -0.03370
C2021       C  0.57839927  0.32608357  0.44478740    -0.10000
C2022       C  0.60407868  0.34598778  0.45155296     0.06190
C2023       C  0.60247851  0.36568590  0.47914636    -0.03770
C2024       C  0.57393757  0.36770724  0.49654845    -0.08220
C2025       C  0.54798923  0.34738328  0.48973264     0.05310
C2026       C  0.55121908  0.32623589  0.46337264    -0.03250
Br2027     Br  0.52057051  0.29608968  0.44950936    -0.02940
H2028       H  0.57931155  0.30992600  0.42445067     0.09220
H2029       H  0.57244132  0.38495511  0.51581298     0.07240
Br2030     Br  0.63843401  0.38842555  0.49609727    -0.03370
C2031       C  0.57257203  0.44167914  0.37597964    -0.10000
C2032       C  0.59723192  0.44286262  0.35328953     0.06190
C2033       C  0.59831733  0.46958400  0.33251798    -0.03770
C2034       C  0.57250672  0.49094376  0.33133478    -0.08220
C2035       C  0.54644531  0.48828699  0.35190162     0.05310
C2036       C  0.54840546  0.46497532  0.37646691    -0.03250
Br2037     Br  0.51864346  0.46338914  0.41077688    -0.02940
H2038       H  0.57198849  0.42252829  0.39352116     0.09220
H2039       H  0.57223983  0.50941391  0.31377955     0.07240
Br2040     Br  0.63343779  0.47815769  0.30446271    -0.03370
C2041       C  0.72262254  0.45167643  0.46107006    -0.10000
C2042       C  0.69390830  0.44201597  0.44677659     0.06190
C2043       C  0.66488721  0.45599327  0.45686702    -0.03770
C2044       C  0.66512961  0.48006789  0.48018423    -0.08220
C2045       C  0.69417079  0.49216170  0.49151791     0.05310
C2046       C  0.72292732  0.47749705  0.48219349    -0.03250
Br2047     Br  0.76241016  0.49085292  0.50064685    -0.02940
H2048       H  0.74498157  0.44078127  0.45403338     0.09220
H2049       H  0.64299218  0.49163941  0.48682555     0.07240
Br2050     Br  0.62478618  0.44623329  0.43701104    -0.03370
C2051       C  0.55972059  0.07273979  0.31894221    -0.10000
C2052       C  0.54979839  0.05732453  0.34719519     0.06190
C2053       C  0.56923277  0.06059472  0.37498205    -0.03770
C2054       C  0.59664896  0.07994493  0.37419733    -0.08220
C2055       C  0.60296817  0.09947297  0.34737275     0.05310
C2056       C  0.58416892  0.09534036  0.31945486    -0.03250
Br2057     Br  0.58947284  0.12120753  0.28189370    -0.02940
H2058       H  0.54690894  0.06876342  0.29658295     0.09220
H2059       H  0.61107424  0.08232122  0.39584564     0.07240
Br2060     Br  0.55820315  0.04151567  0.41519316    -0.03370
C2061       C  0.69102407  0.07959842  0.43458538    -0.10000
C2062       C  0.69673049  0.10912724  0.44815482     0.06190
C2063       C  0.70588182  0.11092027  0.48054040    -0.03770
C2064       C  0.70806708  0.08284374  0.49891372    -0.08220
C2065       C  0.69909679  0.05250819  0.48659684     0.05310
C2066       C  0.69378952  0.05165835  0.45222503    -0.03250
Br2067     Br  0.69593692  0.01673730  0.42235315    -0.02940
H2068       H  0.68554716  0.07824094  0.40901468     0.09220
H2069       H  0.71804793  0.08560181  0.52254146     0.07240
Br2070     Br  0.71709426  0.15069315  0.50032660    -0.03370
C2071       C  0.58932009  0.22159653  0.46787550    -0.10000
C2072       C  0.59163848  0.19852533  0.44338627     0.06190
C2073       C  0.56940099  0.17320978  0.44345783    -0.03770
C2074       C  0.54615284  0.17127652  0.46710938    -0.08220
C2075       C  0.54359233  0.19425408  0.49133001     0.05310
C2076       C  0.56511998  0.21995752  0.49111165    -0.03250
Br2077     Br  0.55992469  0.25500334  0.51940049    -0.02940
H2078       H  0.60541821  0.24172432  0.46811356     0.09220
H2079       H  0.52928431  0.15177501  0.46625264     0.07240
Br2080     Br  0.56851881  0.13988240  0.41235265    -0.03370
C2081       C  0.81621862  0.10311228  0.47347200    -0.10000
C2082       C  0.84074939  0.10809705  0.45128417     0.06190
C2083       C  0.86897887  0.09019981  0.45450210    -0.03770
C2084       C  0.86965152  0.06300249  0.47344068    -0.08220
C2085       C  0.84451400  0.05620998  0.49409566     0.05310
C2086       C  0.81855755  0.07789092  0.49585273    -0.03250
Br2087     Br  0.78402243  0.07140916  0.52468005    -0.02940
H2088       H  0.79481389  0.11769732  0.47245957     0.09220
H2089       H  0.89063208  0.04774847  0.47328441     0.07240
Br2090     Br  0.90860708  0.10502860  0.43843079    -0.03370
C2091       C  0.93855168  0.08095807  0.36996584    -0.10000
C2092       C  0.93896463  0.10903391  0.35158241     0.06190
C2093       C  0.96513278  0.11448139  0.33172086    -0.03770
C2094       C  0.98847117  0.09079942  0.32843305    -0.08220
C2095       C  0.98959466  0.06334721  0.34848439     0.05310
C2096       C  0.96534983  0.06078067  0.37181190    -0.03250
Br2097     Br  0.96663084  0.03020250  0.40617486    -0.02940
H2098       H  0.91778701  0.07505342  0.38369518     0.09220
H2099       H  0.00554086  0.09492316  0.30997066     0.07240
Br2100     Br  0.96857860  0.15257892  0.30612179    -0.03370
C2101       C  0.98077956  0.22139610  0.47192346    -0.10000
C2102       C  0.98389683  0.19564361  0.49336463     0.06190
C2103       C  0.95972314  0.17249456  0.49366949    -0.03770
C2104       C  0.93210390  0.17698594  0.47484144    -0.08220
C2105       C  0.92985850  0.20202133  0.45228101     0.05310
C2106       C  0.95475656  0.22435680  0.45090991    -0.03250
Br2107     Br  0.95500218  0.25893823  0.42037380    -0.02940
H2108       H  0.99959725  0.23865228  0.47074448     0.09220
H2109       H  0.91334214  0.15952034  0.47620397     0.07240
Br2110     Br  0.96575922  0.13199443  0.01428373    -0.03370
C2111       C  0.82514542  0.46875544  0.43891208    -0.10000
C2112       C  0.84392110  0.44188101  0.44561423     0.06190
C2113       C  0.86502536  0.44301826  0.47236091    -0.03770
C2114       C  0.86583938  0.47012880  0.49214397    -0.08220
C2115       C  0.84515416  0.49632710  0.48694819     0.05310
C2116       C  0.82605014  0.49588523  0.45815955    -0.03250
Br2117     Br  0.79952150  0.52986330  0.44113838    -0.02940
H2118       H  0.80952138  0.46895726  0.41796292     0.09220
H2119       H  0.88326087  0.47071152  0.51150212     0.07240
Br2120     Br  0.89453793  0.40942770  0.48283214    -0.03370
C2121       C  0.93978393  0.32615882  0.46639136    -0.10000
C2122       C  0.93860971  0.34960848  0.44227352     0.06190
C2123       C  0.96013811  0.37525941  0.44407016    -0.03770
C2124       C  0.98427182  0.37532081  0.46751527    -0.08220
C2125       C  0.98737176  0.35028418  0.48986148     0.05310
C2126       C  0.96401724  0.32606109  0.48980144    -0.03250
Br2127     Br  0.96681218  0.28928938  0.51682402    -0.02940
H2128       H  0.92284116  0.30674263  0.46598999     0.09220
H2129       H  0.00133402  0.39464892  0.46777312     0.07240
Br2130     Br  0.95605771  0.41203559  0.41686591    -0.03370
C2131       C  0.95433926  0.49849490  0.33532692    -0.10000
C2132       C  0.98606102  0.48655863  0.33700155     0.06190
C2133       C  0.98838790  0.45294453  0.33148000    -0.03770
C2134       C  0.96214986  0.43297960  0.33407395    -0.08220
C2135       C  0.93156834  0.44487012  0.33912504     0.05310
C2136       C  0.92751361  0.47837575  0.33833253    -0.03250
Br2137     Br  0.88618429  0.49818236  0.33956320    -0.02940
H2138       H  0.94944088  0.52312284  0.33053037     0.09220
H2139       H  0.96586439  0.40748190  0.33143638     0.07240
Br2140     Br  0.52334314  0.43131520  0.31248250    -0.03370
O2141       O  0.88839053  0.33361491  0.92098092    -0.86200
O2142       O  0.85412925  0.38801999  0.92945712    -0.83240
C2143       C  0.84226270  0.41480662  0.92253195     0.97260
O2144       O  0.82834522  0.41885418  0.89562105    -0.83280
O2145       O  0.87975628  0.42786026  0.85680278    -0.85920
C2146       C  0.90550074  0.42095658  0.84308686     1.01790
O2147       O  0.91013474  0.39272209  0.83319298    -0.78680
O2148       O  0.92019382  0.35880652  0.88867746    -0.78870
C2149       C  0.91455958  0.34732760  0.91603799     1.01740
O2150       O  0.83768917  0.30726718  0.88341063    -0.86190
O2151       O  0.79978993  0.35952484  0.89691670    -0.83260
C2152       C  0.78484767  0.36773848  0.87157856     0.97280
O2153       O  0.79939890  0.37901427  0.84776178    -0.83290
O2154       O  0.84938643  0.39070543  0.80657792    -0.85890
C2155       C  0.85901272  0.36549123  0.79280307     1.01760
O2156       O  0.87123694  0.34278093  0.80872999    -0.78710
O2157       O  0.88525950  0.30501103  0.86173045    -0.78860
C2158       C  0.86019960  0.29132379  0.87140723     1.01720
Cr2159     Cr  0.84583337  0.34858636  0.90469867     1.93740
Cr2160     Cr  0.84064573  0.40121955  0.85280299     1.93210
Cr2161     Cr  0.89401528  0.35078349  0.84967780     1.39100
O2162       O  0.85973851  0.36649673  0.86859297    -1.23950
O2163       O  0.82258902  0.15628497  0.92632009    -0.86200
O2164       O  0.87709431  0.19017728  0.93456385    -0.83240
C2165       C  0.90370741  0.20204949  0.92802085     0.97260
O2166       O  0.90852489  0.21348171  0.90036303    -0.83280
O2167       O  0.91863194  0.16002153  0.86494193    -0.85920
C2168       C  0.91274892  0.13273095  0.85383538     1.01790
O2169       O  0.88502815  0.12583142  0.84395639    -0.78680
O2170       O  0.84890670  0.12224027  0.89714706    -0.78870
C2171       C  0.83699132  0.13000970  0.92367107     1.01740
O2172       O  0.79762426  0.20442642  0.88437432    -0.86190
O2173       O  0.84981902  0.24275056  0.89783955    -0.83260
C2174       C  0.85920376  0.25627194  0.87239760     0.97280
O2175       O  0.87042704  0.24010943  0.84955687    -0.83290
O2176       O  0.88353179  0.18750356  0.81161471    -0.85890
C2177       C  0.85949581  0.17626604  0.79697815     1.01760
O2178       O  0.83689162  0.16364580  0.81222668    -0.78710
O2179       O  0.79639289  0.15576319  0.86426240    -0.78860
C2180       C  0.78225447  0.18137937  0.87249786     1.01720
Cr2181     Cr  0.83837062  0.19729275  0.90769773     1.93740
Cr2182     Cr  0.89220678  0.19878528  0.85769961     1.93210
Cr2183     Cr  0.84256674  0.14483764  0.85582417     1.39100
O2184       O  0.85726089  0.18072722  0.87304222    -1.23950
O2185       O  0.64343524  0.21380790  0.92423897    -0.86200
O2186       O  0.68142250  0.16161218  0.93280800    -0.83240
C2187       C  0.69580403  0.13624375  0.92595434     0.97260
O2188       O  0.70815519  0.13262203  0.89864655    -0.83280
O2189       O  0.65355521  0.12035936  0.86370583    -0.85920
C2190       C  0.62716504  0.12545901  0.84978443     1.01790
O2191       O  0.62115748  0.15282691  0.83783215    -0.78680
O2192       O  0.61128692  0.18993583  0.89046377    -0.78870
C2193       C  0.61674675  0.20098245  0.91812323     1.01740
O2194       O  0.69271640  0.24180403  0.88515371    -0.86190
O2195       O  0.73286268  0.19131142  0.89751470    -0.83260
C2196       C  0.74713588  0.18235222  0.87219912     0.97280
O2197       O  0.73173939  0.17086842  0.84863613    -0.83290
O2198       O  0.67947775  0.15470056  0.80951712    -0.85890
C2199       C  0.67049250  0.17962319  0.79451313     1.01760
O2200       O  0.65931619  0.20308007  0.80983646    -0.78710
O2201       O  0.64559895  0.24280679  0.86139718    -0.78860
C2202       C  0.67030928  0.25702447  0.87178813     1.01720
Cr2203     Cr  0.68655889  0.20072824  0.90693206     1.93740
Cr2204     Cr  0.69159878  0.14748704  0.85612138     1.93210
Cr2205     Cr  0.63714803  0.19635499  0.85143795     1.39100
O2206       O  0.67204701  0.18196774  0.87119937    -1.23950
O2207       O  0.70977401  0.39320137  0.92325603    -0.86200
O2208       O  0.65662022  0.35855139  0.93342535    -0.83240
C2209       C  0.62976906  0.34689620  0.92723247     0.97260
O2210       O  0.62401458  0.33561007  0.89953951    -0.83280
O2211       O  0.61486206  0.38977878  0.86484616    -0.85920
C2212       C  0.62105051  0.41629798  0.85221687     1.01790
O2213       O  0.64735161  0.41977645  0.83836755    -0.78680
O2214       O  0.68220845  0.42653076  0.89335761    -0.78870
C2215       C  0.69507414  0.41937120  0.91992299     1.01740
O2216       O  0.73490663  0.34438609  0.88289904    -0.86190
O2217       O  0.68281255  0.30585549  0.89664063    -0.83260
C2218       C  0.67156654  0.29203573  0.87187797     0.97280
O2219       O  0.65944158  0.30786110  0.84893712    -0.83290
O2220       O  0.64805533  0.36031015  0.80989878    -0.85890
C2221       C  0.67334032  0.36877786  0.79563411     1.01760
O2222       O  0.69622962  0.38101290  0.81122450    -0.78710
O2223       O  0.73545373  0.39339011  0.86372604    -0.78860
C2224       C  0.74992126  0.36790828  0.87172457     1.01720
Cr2225     Cr  0.69453795  0.35137393  0.90616170     1.93740
Cr2226     Cr  0.63937609  0.34988749  0.85660771     1.93210
Cr2227     Cr  0.68951774  0.40242435  0.85312584     1.39100
O2228       O  0.67505922  0.36715963  0.87132666    -1.23950
O2229       O  0.64707560  0.33337567  0.63193786    -0.86200
O2230       O  0.68099912  0.38718407  0.62302542    -0.83240
C2231       C  0.69229242  0.41412896  0.62961719     0.97260
O2232       O  0.70646529  0.41902762  0.65609792    -0.83280
O2233       O  0.65535312  0.42858654  0.69357910    -0.85920
C2234       C  0.62921642  0.42207402  0.70641201     1.01790
O2235       O  0.62423688  0.39428799  0.71679543    -0.78680
O2236       O  0.61507476  0.36038123  0.66244499    -0.78870
C2237       C  0.62078790  0.34752028  0.63578989     1.01740
O2238       O  0.69778833  0.30702042  0.67059944    -0.86190
O2239       O  0.73539366  0.35893673  0.65587589    -0.83260
C2240       C  0.75035943  0.36755834  0.68093070     0.97280
O2241       O  0.73581009  0.37943824  0.70456629    -0.83290
O2242       O  0.68510206  0.39233763  0.74551081    -0.85890
C2243       C  0.67430134  0.36811116  0.76008637     1.01760
O2244       O  0.66190928  0.34522964  0.74459572    -0.78710
O2245       O  0.64963152  0.30636303  0.69096431    -0.78860
C2246       C  0.67462006  0.29175319  0.68189666     1.01720
Cr2247     Cr  0.68952362  0.34817591  0.64832149     1.93740
Cr2248     Cr  0.69432430  0.40184644  0.69900419     1.93210
Cr2249     Cr  0.64056034  0.35229887  0.70220253     1.39100
O2250       O  0.67541102  0.36697552  0.68387018    -1.23950
O2251       O  0.82819488  0.39153281  0.62942130    -0.86200
O2252       O  0.87995373  0.35409264  0.62067405    -0.83240
C2253       C  0.90733103  0.34354433  0.62738125     0.97260
O2254       O  0.91312324  0.33213561  0.65510880    -0.83280
O2255       O  0.92048922  0.38511913  0.69225012    -0.85920
C2256       C  0.91453310  0.41148097  0.70560134     1.01790
O2257       O  0.88741584  0.41602932  0.71743845    -0.78680
O2258       O  0.85452991  0.42378201  0.66098176    -0.78870
C2259       C  0.84266740  0.41760682  0.63373502     1.01740
O2260       O  0.80009080  0.34326392  0.66940348    -0.86190
O2261       O  0.85076894  0.30208517  0.65683037    -0.83260
C2262       C  0.86160380  0.28765627  0.68160345     0.97280
O2263       O  0.87508696  0.30302689  0.70399213    -0.83290
O2264       O  0.88500630  0.35495285  0.74398401    -0.85890
C2265       C  0.85986443  0.36489357  0.75760311     1.01760
O2266       O  0.83744908  0.37772448  0.74165033    -0.78710
O2267       O  0.80005394  0.39212062  0.68851614    -0.78860
C2268       C  0.78531130  0.36705771  0.68058270     1.01720
Cr2269     Cr  0.84126435  0.34861757  0.64709426     1.93740
Cr2270     Cr  0.89551652  0.34529434  0.69782809     1.93210
Cr2271     Cr  0.84578544  0.39937332  0.70050680     1.39100
O2272       O  0.86040448  0.36374307  0.68232106    -1.23950
O2273       O  0.68142985  0.15990639  0.62083490    -0.86200
O2274       O  0.64821299  0.21499498  0.62827236    -0.83240
C2275       C  0.62094768  0.20391834  0.63344397     0.97260
O2276       O  0.61394370  0.19268907  0.66044387    -0.83280
O2277       O  0.61873132  0.15645499  0.71352994    -0.85920
C2278       C  0.62264772  0.12932116  0.70094491     1.01790
O2279       O  0.64954593  0.12140661  0.69012496    -0.78680
O2280       O  0.70413637  0.12800296  0.65577497    -0.78870
C2281       C  0.69307349  0.13294856  0.62779801     1.01740
O2282       O  0.73434598  0.18650630  0.65726833    -0.86190
O2283       O  0.69698413  0.24058018  0.66936767    -0.83260
C2284       C  0.67427213  0.25655177  0.68127299     0.97280
O2285       O  0.64911431  0.24292711  0.69032420    -0.83290
O2286       O  0.65980909  0.20329547  0.74312425    -0.85890
C2287       C  0.67037629  0.17954924  0.75880811     1.01760
O2288       O  0.67871014  0.15430575  0.74424189    -0.78710
O2289       O  0.73217333  0.16583766  0.70590031    -0.78860
C2290       C  0.74817203  0.17707872  0.68284492     1.01720
Cr2291     Cr  0.68918042  0.19905583  0.64708115     1.93740
Cr2292     Cr  0.63844239  0.19776928  0.70047175     1.92710
Cr2293     Cr  0.68981605  0.14541359  0.69801496     1.39100
O2294       O  0.67291428  0.18120627  0.68229558    -1.23950
O2295       O  0.88675338  0.20881173  0.63304840    -0.86200
O2296       O  0.85212428  0.15504596  0.62549521    -0.83240
C2297       C  0.83972418  0.12866936  0.63231336     0.97260
O2298       O  0.82431020  0.12605401  0.65802839    -0.83280
O2299       O  0.87769500  0.11481989  0.69386524    -0.85920
C2300       C  0.90447055  0.12007168  0.70661924     1.01790
O2301       O  0.91025589  0.14710161  0.71904055    -0.78680
O2302       O  0.91917773  0.18288117  0.66511967    -0.78870
C2303       C  0.91332462  0.19538858  0.63809809     1.01740
O2304       O  0.83788674  0.23715260  0.67044434    -0.86190
O2305       O  0.79823210  0.18473758  0.65823768    -0.83260
C2306       C  0.78346983  0.17660422  0.68352280     0.97280
O2307       O  0.79860781  0.16554472  0.70753975    -0.83290
O2308       O  0.85014007  0.15046997  0.74726140    -0.85890
C2309       C  0.85981152  0.17535402  0.76157363     1.01760
O2310       O  0.87252900  0.19784284  0.74610949    -0.78710
O2311       O  0.88545235  0.23712012  0.69359296    -0.78860
C2312       C  0.86109605  0.25216267  0.68275737     1.01720
Cr2313     Cr  0.84441766  0.19493775  0.64973853     1.93740
Cr2314     Cr  0.83927363  0.14205692  0.70080084     1.93210
Cr2315     Cr  0.89404108  0.19048556  0.70453726     1.39100
O2316       O  0.85870306  0.17656704  0.68573078    -1.23950
C2317       C  0.51852025  0.00514464  0.70750329    -0.00280
C2318       C  0.51635220  0.03828939  0.70954119    -0.00290
C2319       C  0.51610802  0.00708020  0.84496015    -0.00280
C2320       C  0.51780070  0.04048167  0.84702549    -0.00290
C2321       C  0.69478662  0.02306202  0.50869174    -0.00280
C2322       C  0.69009813  0.02330296  0.54203153    -0.00290
C2323       C  0.51451369  0.19274487  0.51211689    -0.00280
C2324       C  0.51532072  0.18956994  0.54519730    -0.00290
C2325       C  0.84539880  0.02444590  0.51008928    -0.00280
C2326       C  0.85027621  0.02199540  0.54309431    -0.00290
C2327       C  0.51764344  0.34844781  0.50924900    -0.00280
C2328       C  0.51762930  0.34949032  0.54244625    -0.00290
C2329       C  0.86154879  0.10449722  0.58228106    -0.10000
C2330       C  0.84298541  0.10124915  0.61003305     0.06190
C2331       C  0.83067222  0.07083049  0.61713084    -0.03770
C2332       C  0.82994151  0.04754016  0.59326005    -0.08220
C2333       C  0.84810645  0.05062668  0.56506289     0.05310
C2334       C  0.86663088  0.07854490  0.56178095    -0.03250
Br2335     Br  0.90473352  0.07992683  0.53704979    -0.02940
H2336       H  0.87475780  0.12625858  0.57820877     0.09220
H2337       H  0.81771534  0.02544053  0.59840096     0.07240
Br2338     Br  0.82287551  0.05635987  0.66035048    -0.03370
C2339       C  0.95919029  0.16772268  0.61289478    -0.10000
C2340       C  0.93744848  0.19338108  0.61223189     0.06190
C2341       C  0.93909484  0.21561842  0.58664707    -0.03770
C2342       C  0.96300751  0.21255111  0.56354454    -0.08220
C2343       C  0.98548234  0.18762541  0.56489486     0.05310
C2344       C  0.98283511  0.16464729  0.58965533    -0.03250
Br2345     Br  0.51101696  0.12849260  0.59314930    -0.02940
H2346       H  0.95790222  0.14984189  0.63172294     0.09220
H2347       H  0.96511570  0.23066050  0.54535724     0.07240
Br2348     Br  0.91140140  0.25218691  0.58303085    -0.03370
C2349       C  0.97021673  0.06508557  0.73729876    -0.10000
C2350       C  0.98398113  0.05422442  0.70854668     0.06190
C2351       C  0.96831838  0.06164375  0.67909683    -0.03770
C2352       C  0.94186378  0.08249596  0.67861016    -0.08220
C2353       C  0.92934305  0.09460123  0.70736491     0.05310
C2354       C  0.94202538  0.08338217  0.73667103    -0.03250
Br2355     Br  0.91815100  0.08861800  0.77517521    -0.02940
H2356       H  0.98088667  0.05847150  0.76024635     0.09220
H2357       H  0.93163437  0.08995159  0.65572034     0.07240
Br2358     Br  0.98419040  0.04646171  0.63881538    -0.03370
C2359       C  0.54282379  0.21574901  0.59119356    -0.10000
C2360       C  0.54499312  0.19430872  0.56514119     0.06190
C2361       C  0.57359207  0.17672500  0.56154829    -0.03770
C2362       C  0.59950520  0.18263609  0.58225190    -0.08220
C2363       C  0.59661889  0.20391199  0.60808355     0.05310
C2364       C  0.56796592  0.22024805  0.61273636    -0.03250
Br2365     Br  0.56174520  0.24711691  0.64969851    -0.02940
H2366       H  0.52065425  0.22790761  0.59590483     0.09220
H2367       H  0.62109095  0.16866152  0.57986057     0.07240
Br2368     Br  0.57685888  0.14025387  0.53404676    -0.03370
C2369       C  0.71603718  0.05637412  0.58410862    -0.10000
C2370       C  0.69147024  0.05344802  0.56123373     0.06190
C2371       C  0.66812784  0.07790293  0.55903728    -0.03770
C2372       C  0.66981104  0.10443812  0.57972644    -0.08220
C2373       C  0.69390139  0.10671297  0.60350697     0.05310
C2374       C  0.71717718  0.08226111  0.60518853    -0.03250
Br2375     Br  0.75116575  0.08238075  0.63597004    -0.02940
H2376       H  0.73412184  0.03784691  0.58608448     0.09220
H2377       H  0.65131378  0.12244635  0.57824332     0.07240
Br2378     Br  0.63250078  0.07454726  0.52991536    -0.03370
C2379       C  0.60106403  0.07691005  0.71658072    -0.10000
C2380       C  0.59616747  0.10599365  0.70107733     0.06190
C2381       C  0.56533908  0.11317974  0.68935463    -0.03770
C2382       C  0.54084140  0.09073755  0.69192816    -0.08220
C2383       C  0.54489625  0.06134180  0.70846972     0.05310
C2384       C  0.57568623  0.05623393  0.72260701    -0.03250
Br2385     Br  0.58545107  0.02746370  0.75622994    -0.02940
H2386       H  0.62424590  0.07196708  0.72736256     0.09220
H2387       H  0.51826433  0.09718933  0.68105702     0.07240
Br2388     Br  0.55465854  0.15305675  0.66939873    -0.03370
C2389       C  0.95914752  0.32351978  0.60756172    -0.10000
C2390       C  0.93326824  0.34423275  0.60303990     0.06190
C2391       C  0.93428212  0.36606722  0.57691115    -0.03770
C2392       C  0.96131733  0.36749206  0.55713392    -0.08220
C2393       C  0.98755498  0.34691517  0.56217881     0.05310
C2394       C  0.98560448  0.32454131  0.58764364    -0.03250
Br2395     Br  0.51719890  0.29294502  0.59606102    -0.02940
H2396       H  0.95887952  0.30610328  0.62688775     0.09220
H2397       H  0.96212942  0.38537602  0.53831858     0.07240
Br2398     Br  0.90069242  0.39584642  0.56769748    -0.03370
C2399       C  0.87066589  0.46390188  0.61024222    -0.10000
C2400       C  0.84627523  0.44127931  0.60727380     0.06190
C2401       C  0.82756651  0.44149668  0.57877106    -0.03770
C2402       C  0.83002761  0.46687940  0.55691625    -0.08220
C2403       C  0.85305916  0.49076331  0.56104437     0.05310
C2404       C  0.87499339  0.48746396  0.58698428    -0.03250
Br2405     Br  0.91114003  0.01474488  0.59275928    -0.02940
H2406       H  0.88697280  0.46305512  0.63064333     0.09220
H2407       H  0.81357348  0.46803409  0.53689114     0.07240
Br2408     Br  0.79923682  0.40776013  0.56729417    -0.03370
C2409       C  0.96503021  0.43389795  0.68556467    -0.10000
C2410       C  0.93945187  0.43691324  0.70660153     0.06190
C2411       C  0.93867507  0.46402245  0.72698341    -0.03770
C2412       C  0.96415901  0.48584637  0.72719694    -0.08220
C2413       C  0.98965824  0.48318178  0.70548776     0.05310
C2414       C  0.98930906  0.45642657  0.68447700    -0.03250
Br2415     Br  0.52110156  0.44742883  0.65336457    -0.02940
H2416       H  0.96610908  0.41379115  0.66920821     0.09220
H2417       H  0.96429020  0.50423178  0.74529765     0.07240
Br2418     Br  0.90396233  0.47295245  0.75526175    -0.03370
C2419       C  0.57453740  0.37478226  0.60885069    -0.10000
C2420       C  0.59681315  0.34939329  0.60921332     0.06190
C2421       C  0.59625822  0.32745347  0.58335720    -0.03770
C2422       C  0.57212014  0.32958754  0.55998820    -0.08220
C2423       C  0.54781511  0.35252733  0.56189697     0.05310
C2424       C  0.55074551  0.37672667  0.58495207    -0.03250
Br2425     Br  0.52439451  0.41407248  0.58152393    -0.02940
H2426       H  0.57584806  0.39338102  0.62689991     0.09220
H2427       H  0.57153109  0.31249690  0.54093224     0.07240
Br2428     Br  0.62579396  0.29247574  0.57923323    -0.03370
C2429       C  0.67280632  0.46795175  0.61432135    -0.10000
C2430       C  0.68924869  0.44012630  0.60619859     0.06190
C2431       C  0.70230911  0.43758796  0.57574199    -0.03770
C2432       C  0.70363922  0.46451660  0.55625294    -0.08220
C2433       C  0.68673914  0.49307340  0.56289794     0.05310
C2434       C  0.66936071  0.49316569  0.59230174    -0.03250
Br2435     Br  0.63881771  0.02503957  0.60435449    -0.02940
H2436       H  0.66156686  0.46952747  0.63751599     0.09220
H2437       H  0.71943997  0.46204956  0.53686036     0.07240
Br2438     Br  0.71886906  0.39795877  0.55971396    -0.03370
C2439       C  0.60030119  0.47059357  0.68582754    -0.10000
C2440       C  0.60366772  0.44648178  0.70923359     0.06190
C2441       C  0.58038280  0.44382197  0.73321764    -0.03770
C2442       C  0.55354570  0.46372974  0.73240207    -0.08220
C2443       C  0.54960452  0.48742703  0.70856024     0.05310
C2444       C  0.57351998  0.49081855  0.68508091    -0.03250
Br2445     Br  0.56814352  0.01838805  0.64845531    -0.02940
H2446       H  0.61739258  0.47239780  0.66673472     0.09220
H2447       H  0.53549426  0.46088341  0.75054535     0.07240
Br2448     Br  0.58452058  0.41341271  0.76777232    -0.03370
C2449       C  0.57839916  0.32608365  0.94478739    -0.10000
C2450       C  0.60407858  0.34598784  0.95155295     0.06190
C2451       C  0.60247843  0.36568596  0.97914636    -0.03770
C2452       C  0.57393749  0.36770731  0.99654845    -0.08220
C2453       C  0.54798913  0.34738337  0.98973265     0.05310
C2454       C  0.55121897  0.32623598  0.96337265    -0.03250
Br2455     Br  0.52057040  0.29608976  0.94950939    -0.02940
H2456       H  0.57931142  0.30992608  0.92445065     0.09220
H2457       H  0.57244126  0.38495518  0.01581300     0.07240
Br2458     Br  0.63843395  0.38842556  0.99609727    -0.03370
C2459       C  0.57257197  0.44167911  0.87597960    -0.10000
C2460       C  0.59723182  0.44286254  0.85328944     0.06190
C2461       C  0.59831718  0.46958388  0.83251782    -0.03770
C2462       C  0.57250660  0.49094368  0.83133468    -0.08220
C2463       C  0.54644525  0.48828697  0.85190161     0.05310
C2464       C  0.54840542  0.46497529  0.87646690    -0.03250
Br2465     Br  0.51864345  0.46338913  0.91077691    -0.02940
H2466       H  0.57198846  0.42252828  0.89352114     0.09220
H2467       H  0.57223967  0.50941381  0.81377943     0.07240
Br2468     Br  0.63343751  0.47815738  0.80446232    -0.03370
C2469       C  0.72262246  0.45167642  0.96107008    -0.10000
C2470       C  0.69390823  0.44201596  0.94677660     0.06190
C2471       C  0.66488713  0.45599326  0.95686702    -0.03770
C2472       C  0.66512952  0.48006788  0.98018423    -0.08220
C2473       C  0.69417070  0.49216170  0.99151791     0.05310
C2474       C  0.72292723  0.47749704  0.98219350    -0.03250
Br2475     Br  0.76241006  0.49085294  0.00064686    -0.02940
H2476       H  0.74498149  0.44078126  0.95403341     0.09220
H2477       H  0.64299209  0.49163941  0.98682554     0.07240
Br2478     Br  0.62478611  0.44623329  0.93701102    -0.03370
C2479       C  0.55972061  0.07273978  0.81894220    -0.10000
C2480       C  0.54979838  0.05732452  0.84719518     0.06190
C2481       C  0.56923273  0.06059474  0.87498205    -0.03770
C2482       C  0.59664892  0.07994494  0.87419734    -0.08220
C2483       C  0.60296817  0.09947295  0.84737276     0.05310
C2484       C  0.58416895  0.09534033  0.81945485    -0.03250
Br2485     Br  0.58947295  0.12120745  0.78189367    -0.02940
H2486       H  0.54690895  0.06876341  0.79658293     0.09220
H2487       H  0.61107418  0.08232124  0.89584568     0.07240
Br2488     Br  0.55820306  0.04151571  0.91519315    -0.03370
C2489       C  0.69102410  0.07959840  0.93458538    -0.10000
C2490       C  0.69673052  0.10912723  0.94815482     0.06190
C2491       C  0.70588188  0.11092026  0.98054039    -0.03770
C2492       C  0.70806716  0.08284373  0.99891371    -0.08220
C2493       C  0.69909687  0.05250818  0.98659684     0.05310
C2494       C  0.69378959  0.05165834  0.95222503    -0.03250
Br2495     Br  0.69593702  0.01673728  0.92235315    -0.02940
H2496       H  0.68554718  0.07824093  0.90901468     0.09220
H2497       H  0.71804802  0.08560181  0.02254144     0.07240
Br2498     Br  0.71709432  0.15069315  0.00032658    -0.03370
C2499       C  0.58932012  0.22159655  0.96787551    -0.10000
C2500       C  0.59163848  0.19852534  0.94338628     0.06190
C2501       C  0.56940098  0.17320980  0.94345785    -0.03770
C2502       C  0.54615283  0.17127656  0.96710940    -0.08220
C2503       C  0.54359234  0.19425414  0.99133002     0.05310
C2504       C  0.56512000  0.21995756  0.99111166    -0.03250
Br2505     Br  0.55992476  0.25500340  0.01940050    -0.02940
H2506       H  0.60541825  0.24172433  0.96811356     0.09220
H2507       H  0.52928429  0.15177506  0.96625266     0.07240
Br2508     Br  0.56851877  0.13988242  0.91235267    -0.03370
C2509       C  0.81621867  0.10311226  0.97347204    -0.10000
C2510       C  0.84074943  0.10809703  0.95128419     0.06190
C2511       C  0.86897892  0.09019979  0.95450212    -0.03770
C2512       C  0.86965158  0.06300248  0.97344070    -0.08220
C2513       C  0.84451407  0.05620996  0.99409569     0.05310
C2514       C  0.81855761  0.07789090  0.99585277    -0.03250
Br2515     Br  0.78402250  0.07140913  0.02468010    -0.02940
H2516       H  0.79481394  0.11769729  0.97245961     0.09220
H2517       H  0.89063215  0.04774847  0.97328443     0.07240
Br2518     Br  0.90860712  0.10502858  0.93843077    -0.03370
C2519       C  0.93855167  0.08095802  0.86996581    -0.10000
C2520       C  0.93896463  0.10903387  0.85158242     0.06190
C2521       C  0.96513279  0.11448137  0.83172088    -0.03770
C2522       C  0.98847118  0.09079941  0.82843305    -0.08220
C2523       C  0.98959466  0.06334717  0.84848436     0.05310
C2524       C  0.96534981  0.06078060  0.87181185    -0.03250
Br2525     Br  0.96663079  0.03020239  0.90617477    -0.02940
H2526       H  0.91778700  0.07505336  0.88369515     0.09220
H2527       H  0.00554088  0.09492316  0.80997068     0.07240
Br2528     Br  0.96857861  0.15257891  0.80612182    -0.03370
C2529       C  0.98077953  0.22139621  0.97192351    -0.10000
C2530       C  0.98389684  0.19564373  0.99336468     0.06190
C2531       C  0.95972318  0.17249464  0.99366953    -0.03770
C2532       C  0.93210394  0.17698597  0.97484147    -0.08220
C2533       C  0.92985851  0.20202135  0.95228105     0.05310
C2534       C  0.95475652  0.22435687  0.95090997    -0.03250
Br2535     Br  0.95500207  0.25893833  0.92037388    -0.02940
H2536       H  0.99959719  0.23865243  0.97074453     0.09220
H2537       H  0.91334222  0.15952032  0.97620399     0.07240
Br2538     Br  0.96575913  0.13199433  0.51428364    -0.03370
C2539       C  0.82514529  0.46875541  0.93891208    -0.10000
C2540       C  0.84392097  0.44188098  0.94561424     0.06190
C2541       C  0.86502526  0.44301827  0.97236089    -0.03770
C2542       C  0.86583930  0.47012882  0.99214394    -0.08220
C2543       C  0.84515406  0.49632710  0.98694815     0.05310
C2544       C  0.82605003  0.49588522  0.95815953    -0.03250
Br2545     Br  0.79952140  0.52986329  0.94113835    -0.02940
H2546       H  0.80952124  0.46895722  0.91796293     0.09220
H2547       H  0.88326080  0.47071156  0.01150208     0.07240
Br2548     Br  0.89453787  0.40942774  0.98283212    -0.03370
C2549       C  0.93978384  0.32615894  0.96639153    -0.10000
C2550       C  0.93860961  0.34960857  0.94227366     0.06190
C2551       C  0.96013800  0.37525951  0.94407026    -0.03770
C2552       C  0.98427169  0.37532096  0.96751538    -0.08220
C2553       C  0.98737164  0.35028437  0.98986163     0.05310
C2554       C  0.96401714  0.32606126  0.98980161    -0.03250
Br2555     Br  0.96681215  0.28928954  0.01682417    -0.02940
H2556       H  0.92284109  0.30674273  0.96599018     0.09220
H2557       H  0.00133388  0.39464908  0.96777321     0.07240
Br2558     Br  0.95605765  0.41203563  0.91686593    -0.03370
C2559       C  0.95433908  0.49849499  0.83532757    -0.10000
C2560       C  0.98606086  0.48655874  0.83700181     0.06190
C2561       C  0.98838772  0.45294469  0.83148003    -0.03770
C2562       C  0.96214971  0.43297971  0.83407400    -0.08220
C2563       C  0.93156822  0.44487017  0.83912543     0.05310
C2564       C  0.92751348  0.47837581  0.83833330    -0.03250
Br2565     Br  0.88618418  0.49818243  0.83956458    -0.02940
H2566       H  0.94944062  0.52312293  0.83053118     0.09220
H2567       H  0.96586424  0.40748204  0.83143617     0.07240
Br2568     Br  0.52334300  0.43131530  0.81248239    -0.03370
O2569       O  0.88839053  0.83361493  0.42098089    -0.86200
O2570       O  0.85412925  0.88802001  0.42945709    -0.83240
C2571       C  0.84226273  0.91480665  0.42253192     0.97260
O2572       O  0.82834529  0.91885425  0.39562101    -0.83280
O2573       O  0.87975634  0.92786028  0.35680269    -0.85920
C2574       C  0.90550078  0.92095657  0.34308676     1.01790
O2575       O  0.91013477  0.89272206  0.33319291    -0.78680
O2576       O  0.92019384  0.85880652  0.38867743    -0.78870
C2577       C  0.91455959  0.84732760  0.41603796     1.01740
O2578       O  0.83768917  0.80726720  0.38341061    -0.86190
O2579       O  0.79978993  0.85952487  0.39691667    -0.83260
C2580       C  0.78484768  0.86773853  0.37157853     0.97280
O2581       O  0.79939891  0.87901434  0.34776176    -0.83290
O2582       O  0.84938642  0.89070543  0.30657789    -0.85890
C2583       C  0.85901269  0.86549122  0.29280305     1.01760
O2584       O  0.87123692  0.84278093  0.30872998    -0.78710
O2585       O  0.88525950  0.80501103  0.36173044    -0.78860
C2586       C  0.86019960  0.79132379  0.37140722     1.01720
Cr2587     Cr  0.84583337  0.84858638  0.40469864     1.93740
Cr2588     Cr  0.84064577  0.90121959  0.35280295     1.93210
Cr2589     Cr  0.89401528  0.85078349  0.34967777     1.39100
O2590       O  0.85973852  0.86649675  0.36859294    -1.23950
O2591       O  0.82258901  0.65628497  0.42632009    -0.86200
O2592       O  0.87709429  0.69017727  0.43456385    -0.83240
C2593       C  0.90370740  0.70204947  0.42802086     0.97260
O2594       O  0.90852489  0.71348169  0.40036304    -0.83280
O2595       O  0.91863192  0.66002151  0.36494194    -0.85920
C2596       C  0.91274890  0.63273093  0.35383539     1.01790
O2597       O  0.88502812  0.62583141  0.34395639    -0.78680
O2598       O  0.84890668  0.62224026  0.39714705    -0.78870
C2599       C  0.83699131  0.63000970  0.42367106     1.01740
O2600       O  0.79762425  0.70442642  0.38437432    -0.86190
O2601       O  0.84981901  0.74275057  0.39783954    -0.83260
C2602       C  0.85920376  0.75627194  0.37239760     0.97280
O2603       O  0.87042705  0.74010943  0.34955687    -0.83290
O2604       O  0.88353178  0.68750355  0.31161471    -0.85890
C2605       C  0.85949580  0.67626603  0.29697815     1.01760
O2606       O  0.83689160  0.66364579  0.31222668    -0.78710
O2607       O  0.79639288  0.65576319  0.36426240    -0.78860
C2608       C  0.78225446  0.68137936  0.37249786     1.01720
Cr2609     Cr  0.83837061  0.69729275  0.40769773     1.93740
Cr2610     Cr  0.89220677  0.69878526  0.35769961     1.93210
Cr2611     Cr  0.84256672  0.64483763  0.35582417     1.39100
O2612       O  0.85726088  0.68072722  0.37304222    -1.23950
O2613       O  0.64343522  0.71380790  0.42423897    -0.86200
O2614       O  0.68142248  0.66161218  0.43280800    -0.83240
C2615       C  0.69580401  0.63624375  0.42595435     0.97260
O2616       O  0.70815518  0.63262202  0.39864656    -0.83280
O2617       O  0.65355520  0.62035934  0.36370584    -0.85920
C2618       C  0.62716504  0.62545899  0.34978444     1.01790
O2619       O  0.62115748  0.65282689  0.33783216    -0.78680
O2620       O  0.61128691  0.68993583  0.39046376    -0.78870
C2621       C  0.61674673  0.70098244  0.41812322     1.01740
O2622       O  0.69271639  0.74180401  0.38515371    -0.86190
O2623       O  0.73286266  0.69131141  0.39751471    -0.83260
C2624       C  0.74713586  0.68235222  0.37219913     0.97280
O2625       O  0.73173938  0.67086841  0.34863613    -0.83290
O2626       O  0.67947774  0.65470053  0.30951713    -0.85890
C2627       C  0.67049249  0.67962315  0.29451313     1.01760
O2628       O  0.65931619  0.70308005  0.30983645    -0.78710
O2629       O  0.64559895  0.74280677  0.36139716    -0.78860
C2630       C  0.67030929  0.75702445  0.37178811     1.01720
Cr2631     Cr  0.68655888  0.70072823  0.40693206     1.93740
Cr2632     Cr  0.69159878  0.64748703  0.35612139     1.93210
Cr2633     Cr  0.63714803  0.69635498  0.35143794     1.39100
O2634       O  0.67204700  0.68196772  0.37119937    -1.23950
O2635       O  0.70977400  0.89320137  0.42325597    -0.86200
O2636       O  0.65662023  0.85855137  0.43342529    -0.83240
C2637       C  0.62976908  0.84689615  0.42723242     0.97260
O2638       O  0.62401460  0.83561001  0.39953947    -0.83280
O2639       O  0.61486202  0.88977872  0.36484612    -0.85920
C2640       C  0.62105046  0.91629791  0.35221681     1.01790
O2641       O  0.64735156  0.91977641  0.33836751    -0.78680
O2642       O  0.68220842  0.92653075  0.39335755    -0.78870
C2643       C  0.69507413  0.91937120  0.41992293     1.01740
O2644       O  0.73490665  0.84438611  0.38289899    -0.86190
O2645       O  0.68281258  0.80585548  0.39664058    -0.83260
C2646       C  0.67156656  0.79203571  0.37187793     0.97280
O2647       O  0.65944160  0.80786107  0.34893707    -0.83290
O2648       O  0.64805529  0.86031012  0.30989874    -0.85890
C2649       C  0.67334027  0.86877785  0.29563405     1.01760
O2650       O  0.69622958  0.88101289  0.31122443    -0.78710
O2651       O  0.73545371  0.89339012  0.36372597    -0.78860
C2652       C  0.74992126  0.86790830  0.37172451     1.01720
Cr2653     Cr  0.69453796  0.85137392  0.40616164     1.93740
Cr2654     Cr  0.63937609  0.84988744  0.35660767     1.93210
Cr2655     Cr  0.68951771  0.90242434  0.35312578     1.39100
O2656       O  0.67505921  0.86715961  0.37132661    -1.23950
O2657       O  0.64707558  0.83337561  0.13193783    -0.86200
O2658       O  0.68099908  0.88718402  0.12302537    -0.83240
C2659       C  0.69229235  0.91412892  0.12961712     0.97260
O2660       O  0.70646520  0.91902760  0.15609787    -0.83280
O2661       O  0.65535299  0.92858652  0.19357901    -0.85920
C2662       C  0.62921629  0.92207398  0.20641190     1.01790
O2663       O  0.62423679  0.89428796  0.21679535    -0.78680
O2664       O  0.61507471  0.86038119  0.16244492    -0.78870
C2665       C  0.62078788  0.84752022  0.13578984     1.01740
O2666       O  0.69778829  0.80702040  0.17059946    -0.86190
O2667       O  0.73539359  0.85893671  0.15587588    -0.83260
C2668       C  0.75035935  0.86755833  0.18093070     0.97280
O2669       O  0.73580999  0.87943826  0.20456626    -0.83290
O2670       O  0.68510194  0.89233765  0.24551076    -0.85890
C2671       C  0.67430125  0.86811116  0.26008631     1.01760
O2672       O  0.66190920  0.84522963  0.24459567    -0.78710
O2673       O  0.64963146  0.80636300  0.19096428    -0.78860
C2674       C  0.67462001  0.79175317  0.18189666     1.01720
Cr2675     Cr  0.68952357  0.84817588  0.14832147     1.93740
Cr2676     Cr  0.69432420  0.90184644  0.19900413     1.93210
Cr2677     Cr  0.64056027  0.85229884  0.20220247     1.39100
O2678       O  0.67541095  0.86697551  0.18387014    -1.23950
O2679       O  0.82819477  0.89153280  0.12942130    -0.86200
O2680       O  0.87995362  0.85409262  0.12067404    -0.83240
C2681       C  0.90733091  0.84354431  0.12738125     0.97260
O2682       O  0.91312311  0.83213556  0.15510878    -0.83280
O2683       O  0.92048909  0.88511907  0.19225011    -0.85920
C2684       C  0.91453301  0.91148091  0.20560134     1.01790
O2685       O  0.88741575  0.91602929  0.21743844    -0.78680
O2686       O  0.85452980  0.92378199  0.16098177    -0.78870
C2687       C  0.84266729  0.91760680  0.13373503     1.01740
O2688       O  0.80009070  0.84326390  0.16940349    -0.86190
O2689       O  0.85076883  0.80208514  0.15683036    -0.83260
C2690       C  0.86160369  0.78765624  0.18160344     0.97280
O2691       O  0.87508683  0.80302686  0.20399212    -0.83290
O2692       O  0.88500621  0.85495280  0.24398399    -0.85890
C2693       C  0.85986436  0.86489354  0.25760310     1.01760
O2694       O  0.83744900  0.87772445  0.24165034    -0.78710
O2695       O  0.80005385  0.89212060  0.18851616    -0.78860
C2696       C  0.78531121  0.86705769  0.18058271     1.01720
Cr2697     Cr  0.84126424  0.84861755  0.14709425     1.93740
Cr2698     Cr  0.89551640  0.84529429  0.19782807     1.93210
Cr2699     Cr  0.84578534  0.89937330  0.20050681     1.39100
O2700       O  0.86040437  0.86374304  0.18232106    -1.23950
O2701       O  0.68142981  0.65990639  0.12083490    -0.86200
O2702       O  0.64821294  0.71499497  0.12827237    -0.83240
C2703       C  0.62094764  0.70391833  0.13344398     0.97260
O2704       O  0.61394366  0.69268904  0.16044388    -0.83280
O2705       O  0.61873128  0.65645495  0.21352991    -0.85920
C2706       C  0.62264770  0.62932112  0.20094486     1.01790
O2707       O  0.64954591  0.62140659  0.19012493    -0.78680
O2708       O  0.70413636  0.62800297  0.15577496    -0.78870
C2709       C  0.69307346  0.63294857  0.12779800     1.01740
O2710       O  0.73434595  0.68650629  0.15726833    -0.86190
O2711       O  0.69698409  0.74058017  0.16936769    -0.83260
C2712       C  0.67427209  0.75655175  0.18127300     0.97280
O2713       O  0.64911427  0.74292708  0.19032422    -0.83290
O2714       O  0.65980906  0.70329542  0.24312425    -0.85890
C2715       C  0.67037626  0.67954919  0.25880811     1.01760
O2716       O  0.67871010  0.65430571  0.24424189    -0.78710
O2717       O  0.73217330  0.66583764  0.20590032    -0.78860
C2718       C  0.74817200  0.67707870  0.18284493     1.01720
Cr2719     Cr  0.68918038  0.69905583  0.14708116     1.93740
Cr2720     Cr  0.63844235  0.69776925  0.20047176     1.92710
Cr2721     Cr  0.68981602  0.64541357  0.19801495     1.39100
O2722       O  0.67291425  0.68120625  0.18229558    -1.23950
O2723       O  0.88675334  0.70881171  0.13304839    -0.86200
O2724       O  0.85212427  0.65504592  0.12549521    -0.83240
C2725       C  0.83972418  0.62866932  0.13231336     0.97260
O2726       O  0.82431020  0.62605397  0.15802839    -0.83280
O2727       O  0.87769501  0.61481986  0.19386524    -0.85920
C2728       C  0.90447057  0.62007167  0.20661922     1.01790
O2729       O  0.91025589  0.64710161  0.21904053    -0.78680
O2730       O  0.91917770  0.68288117  0.16511966    -0.78870
C2731       C  0.91332459  0.69538858  0.13809808     1.01740
O2732       O  0.83788667  0.73715255  0.17044432    -0.86190
O2733       O  0.79823207  0.68473752  0.15823766    -0.83260
C2734       C  0.78346980  0.67660417  0.18352279     0.97280
O2735       O  0.79860779  0.66554468  0.20753975    -0.83290
O2736       O  0.85014007  0.65046994  0.24726140    -0.85890
C2737       C  0.85981151  0.67535400  0.26157363     1.01760
O2738       O  0.87252898  0.69784282  0.24610948    -0.78710
O2739       O  0.88545229  0.73712011  0.19359295    -0.78860
C2740       C  0.86109598  0.75216264  0.18275735     1.01720
Cr2741     Cr  0.84441762  0.69493771  0.14973851     1.93740
Cr2742     Cr  0.83927363  0.64205689  0.20080084     1.93210
Cr2743     Cr  0.89404105  0.69048556  0.20453725     1.39100
O2744       O  0.85870304  0.67656701  0.18573077    -1.23950
C2745       C  0.51852031  0.50514452  0.20750339    -0.00280
C2746       C  0.51635222  0.53828929  0.20954122    -0.00290
C2747       C  0.51610804  0.50708020  0.34496011    -0.00280
C2748       C  0.51780068  0.54048167  0.34702547    -0.00290
C2749       C  0.69478659  0.52306201  0.00869178    -0.00280
C2750       C  0.69009809  0.52330296  0.04203157    -0.00290
C2751       C  0.51451366  0.69274476  0.01211689    -0.00280
C2752       C  0.51532069  0.68956982  0.04519730    -0.00290
C2753       C  0.84539877  0.52444589  0.01008928    -0.00280
C2754       C  0.85027617  0.52199538  0.04309431    -0.00290
C2755       C  0.51764346  0.84844768  0.00924894    -0.00280
C2756       C  0.51762936  0.84949017  0.04244618    -0.00290
C2757       C  0.86154879  0.60449718  0.08228107    -0.10000
C2758       C  0.84298540  0.60124911  0.11003305     0.06190
C2759       C  0.83067220  0.57083046  0.11713084    -0.03770
C2760       C  0.82994148  0.54754014  0.09326004    -0.08220
C2761       C  0.84810642  0.55062666  0.06506288     0.05310
C2762       C  0.86663087  0.57854486  0.06178095    -0.03250
Br2763     Br  0.90473351  0.57992678  0.03704980    -0.02940
H2764       H  0.87475781  0.62625854  0.07820879     0.09220
H2765       H  0.81771529  0.52544051  0.09840094     0.07240
Br2766     Br  0.82287548  0.55635983  0.16035048    -0.03370
C2767       C  0.95919025  0.66772268  0.11289476    -0.10000
C2768       C  0.93744846  0.69338110  0.11223189     0.06190
C2769       C  0.93909483  0.71561846  0.08664709    -0.03770
C2770       C  0.96300750  0.71255116  0.06354457    -0.08220
C2771       C  0.98548233  0.68762546  0.06489487     0.05310
C2772       C  0.98283507  0.66464731  0.08965532    -0.03250
Br2773     Br  0.51101688  0.62849242  0.09314919    -0.02940
H2774       H  0.95790216  0.64984188  0.13172291     0.09220
H2775       H  0.96511571  0.73066057  0.04535729     0.07240
Br2776     Br  0.91140141  0.75218697  0.08303091    -0.03370
C2777       C  0.97021682  0.56508564  0.23729877    -0.10000
C2778       C  0.98398115  0.55422436  0.20854670     0.06190
C2779       C  0.96831835  0.56164363  0.17909686    -0.03770
C2780       C  0.94186376  0.58249586  0.17861017    -0.08220
C2781       C  0.92934309  0.59460122  0.20736491     0.05310
C2782       C  0.94202547  0.58338224  0.23667104    -0.03250
Br2783     Br  0.91815112  0.58861813  0.27517522    -0.02940
H2784       H  0.98088679  0.55847162  0.26024636     0.09220
H2785       H  0.93163432  0.58995142  0.15572034     0.07240
Br2786     Br  0.98419029  0.54646146  0.13881543    -0.03370
C2787       C  0.54282370  0.71574887  0.09119361    -0.10000
C2788       C  0.54499307  0.69430862  0.06514120     0.06190
C2789       C  0.57359206  0.67672497  0.06154828    -0.03770
C2790       C  0.59950519  0.68263611  0.08225188    -0.08220
C2791       C  0.59661884  0.70391196  0.10808356     0.05310
C2792       C  0.56796582  0.72024793  0.11273642    -0.03250
Br2793     Br  0.56174502  0.74711670  0.14969862    -0.02940
H2794       H  0.52065414  0.72790741  0.09590491     0.09220
H2795       H  0.62109097  0.66866160  0.07986052     0.07240
Br2796     Br  0.57685895  0.64025387  0.03404672    -0.03370
C2797       C  0.71603715  0.55637415  0.08410862    -0.10000
C2798       C  0.69147020  0.55344802  0.06123376     0.06190
C2799       C  0.66812779  0.57790291  0.05903731    -0.03770
C2800       C  0.66981099  0.60443811  0.07972646    -0.08220
C2801       C  0.69390136  0.60671299  0.10350696     0.05310
C2802       C  0.71717717  0.58226115  0.10518850    -0.03250
Br2803     Br  0.75116581  0.58238087  0.13596995    -0.02940
H2804       H  0.73412183  0.53784695  0.08608446     0.09220
H2805       H  0.65131371  0.62244633  0.07824336     0.07240
Br2806     Br  0.63250072  0.57454723  0.02991540    -0.03370
C2807       C  0.60106405  0.57691001  0.21658069    -0.10000
C2808       C  0.59616747  0.60599359  0.20107727     0.06190
C2809       C  0.56533908  0.61317963  0.18935452    -0.03770
C2810       C  0.54084143  0.59073741  0.19192805    -0.08220
C2811       C  0.54489628  0.56134170  0.20846969     0.05310
C2812       C  0.57568626  0.55623389  0.22260701    -0.03250
Br2813     Br  0.58545115  0.52746380  0.25623005    -0.02940
H2814       H  0.62424592  0.57196709  0.22736255     0.09220
H2815       H  0.51826436  0.59718914  0.18105687     0.07240
Br2816     Br  0.55465853  0.65305659  0.16939853    -0.03370
C2817       C  0.95914742  0.82351980  0.10756174    -0.10000
C2818       C  0.93326813  0.84423275  0.10303990     0.06190
C2819       C  0.93428202  0.86606723  0.07691117    -0.03770
C2820       C  0.96131725  0.86749211  0.05713397    -0.08220
C2821       C  0.98755491  0.84691524  0.06217887     0.05310
C2822       C  0.98560440  0.82454136  0.08764368    -0.03250
Br2823     Br  0.51719896  0.79294486  0.09606094    -0.02940
H2824       H  0.95887942  0.80610329  0.12688775     0.09220
H2825       H  0.96212934  0.88537608  0.03831864     0.07240
Br2826     Br  0.90069231  0.89584641  0.06769749    -0.03370
C2827       C  0.87066581  0.96390185  0.11024223    -0.10000
C2828       C  0.84627514  0.94127930  0.10727380     0.06190
C2829       C  0.82756643  0.94149667  0.07877105    -0.03770
C2830       C  0.83002756  0.96687939  0.05691624    -0.08220
C2831       C  0.85305913  0.99076328  0.06104437     0.05310
C2832       C  0.87499334  0.98746392  0.08698429    -0.03250
Br2833     Br  0.91113996  0.51474486  0.09275933    -0.02940
H2834       H  0.88697270  0.96305509  0.13064335     0.09220
H2835       H  0.81357345  0.96803408  0.03689111     0.07240
Br2836     Br  0.79923671  0.90776015  0.06729416    -0.03370
C2837       C  0.96503056  0.93389736  0.18556527    -0.10000
C2838       C  0.93945186  0.93691310  0.20660160     0.06190
C2839       C  0.93867484  0.96402261  0.22698306    -0.03770
C2840       C  0.96415885  0.98584645  0.22719665    -0.08220
C2841       C  0.98965843  0.98318147  0.20548792     0.05310
C2842       C  0.98930955  0.95642584  0.18447767    -0.03250
Br2843     Br  0.52110062  0.94743043  0.15336322    -0.02940
H2844       H  0.96610967  0.91379027  0.16920919     0.09220
H2845       H  0.96428980  0.00423209  0.24529711     0.07240
Br2846     Br  0.90396169  0.97295320  0.25526073    -0.03370
C2847       C  0.57453748  0.87478223  0.10885051    -0.10000
C2848       C  0.59681318  0.84939321  0.10921324     0.06190
C2849       C  0.59625824  0.82745334  0.08335717    -0.03770
C2850       C  0.57212019  0.82958739  0.05998814    -0.08220
C2851       C  0.54781519  0.85252719  0.06189686     0.05310
C2852       C  0.55074562  0.87672661  0.08495186    -0.03250
Br2853     Br  0.52439477  0.91407248  0.08152348    -0.02940
H2854       H  0.57584816  0.89338105  0.12689968     0.09220
H2855       H  0.57153115  0.81249673  0.04093220     0.07240
Br2856     Br  0.62579395  0.79247555  0.07923331    -0.03370
C2857       C  0.67280630  0.96795172  0.11432129    -0.10000
C2858       C  0.68924863  0.94012626  0.10619852     0.06190
C2859       C  0.70230905  0.93758792  0.07574192    -0.03770
C2860       C  0.70363920  0.96451657  0.05625289    -0.08220
C2861       C  0.68673916  0.99307339  0.06289791     0.05310
C2862       C  0.66936073  0.99316568  0.09230170    -0.03250
Br2863     Br  0.63881764  0.52503957  0.10435451    -0.02940
H2864       H  0.66156684  0.96952745  0.13751593     0.09220
H2865       H  0.71943996  0.96204953  0.03686031     0.07240
Br2866     Br  0.71886896  0.89795872  0.05971387    -0.03370
C2867       C  0.60030109  0.97059358  0.18582744    -0.10000
C2868       C  0.60366754  0.94648170  0.20923342     0.06190
C2869       C  0.58038251  0.94382181  0.23321737    -0.03770
C2870       C  0.55354542  0.96372961  0.23240177    -0.08220
C2871       C  0.54960436  0.98742701  0.20856004     0.05310
C2872       C  0.57351990  0.99081859  0.18508080    -0.03250
Br2873     Br  0.56814331  0.51838773  0.14845523    -0.02940
H2874       H  0.61739258  0.97239790  0.16673472     0.09220
H2875       H  0.53549394  0.96088323  0.25054499     0.07240
Br2876     Br  0.58452014  0.91341245  0.26777197    -0.03370
C2877       C  0.57839919  0.82608357  0.44478735    -0.10000
C2878       C  0.60407861  0.84598777  0.45155290     0.06190
C2879       C  0.60247846  0.86568589  0.47914631    -0.03770
C2880       C  0.57393753  0.86770723  0.49654841    -0.08220
C2881       C  0.54798918  0.84738328  0.48973262     0.05310
C2882       C  0.55121901  0.82623589  0.46337261    -0.03250
Br2883     Br  0.52057042  0.79608969  0.44950935    -0.02940
H2884       H  0.57931145  0.80992601  0.42445061     0.09220
H2885       H  0.57244129  0.88495511  0.51581295     0.07240
Br2886     Br  0.63843397  0.88842554  0.49609719    -0.03370
C2887       C  0.57257194  0.94167906  0.37597957    -0.10000
C2888       C  0.59723176  0.94286247  0.35328937     0.06190
C2889       C  0.59831709  0.96958378  0.33251772    -0.03770
C2890       C  0.57250656  0.99094364  0.33133467    -0.08220
C2891       C  0.54644524  0.98828697  0.35190164     0.05310
C2892       C  0.54840541  0.96497527  0.37646691    -0.03250
Br2893     Br  0.51864346  0.96338911  0.41077695    -0.02940
H2894       H  0.57198845  0.92252824  0.39352112     0.09220
H2895       H  0.57223962  0.00941378  0.31377941     0.07240
Br2896     Br  0.63343731  0.97815715  0.30446204    -0.03370
C2897       C  0.72262246  0.95167643  0.46107000    -0.10000
C2898       C  0.69390822  0.94201597  0.44677653     0.06190
C2899       C  0.66488713  0.95599328  0.45686696    -0.03770
C2900       C  0.66512953  0.98006790  0.48018417    -0.08220
C2901       C  0.69417071  0.99216170  0.49151786     0.05310
C2902       C  0.72292724  0.97749704  0.48219344    -0.03250
Br2903     Br  0.76241007  0.99085291  0.50064681    -0.02940
H2904       H  0.74498149  0.94078127  0.45403334     0.09220
H2905       H  0.64299211  0.99163943  0.48682549     0.07240
Br2906     Br  0.62478610  0.94623331  0.43701097    -0.03370
C2907       C  0.55972059  0.57273979  0.31894220    -0.10000
C2908       C  0.54979835  0.55732455  0.34719518     0.06190
C2909       C  0.56923270  0.56059475  0.37498206    -0.03770
C2910       C  0.59664890  0.57994494  0.37419735    -0.08220
C2911       C  0.60296817  0.59947293  0.34737276     0.05310
C2912       C  0.58416896  0.59534032  0.31945485    -0.03250
Br2913     Br  0.58947300  0.62120740  0.28189365    -0.02940
H2914       H  0.54690893  0.56876344  0.29658293     0.09220
H2915       H  0.61107415  0.58232124  0.39584569     0.07240
Br2916     Br  0.55820299  0.54151575  0.41519316    -0.03370
C2917       C  0.69102410  0.57959840  0.43458540    -0.10000
C2918       C  0.69673051  0.60912723  0.44815483     0.06190
C2919       C  0.70588185  0.61092027  0.48054041    -0.03770
C2920       C  0.70806713  0.58284374  0.49891373    -0.08220
C2921       C  0.69909684  0.55250819  0.48659687     0.05310
C2922       C  0.69378957  0.55165834  0.45222506    -0.03250
Br2923     Br  0.69593698  0.51673728  0.42235319    -0.02940
H2924       H  0.68554718  0.57824092  0.40901470     0.09220
H2925       H  0.71804798  0.58560182  0.52254147     0.07240
Br2926     Br  0.71709428  0.65069316  0.50032660    -0.03370
C2927       C  0.58932008  0.72159653  0.46787549    -0.10000
C2928       C  0.59163846  0.69852532  0.44338625     0.06190
C2929       C  0.56940096  0.67320979  0.44345781    -0.03770
C2930       C  0.54615281  0.67127653  0.46710937    -0.08220
C2931       C  0.54359231  0.69425409  0.49132999     0.05310
C2932       C  0.56511996  0.71995752  0.49111164    -0.03250
Br2933     Br  0.55992469  0.75500335  0.51940048    -0.02940
H2934       H  0.60541821  0.74172431  0.46811355     0.09220
H2935       H  0.52928427  0.65177502  0.46625261     0.07240
Br2936     Br  0.56851874  0.63988243  0.41235261    -0.03370
C2937       C  0.81621866  0.60311226  0.47347204    -0.10000
C2938       C  0.84074942  0.60809703  0.45128418     0.06190
C2939       C  0.86897890  0.59019978  0.45450210    -0.03770
C2940       C  0.86965157  0.56300247  0.47344069    -0.08220
C2941       C  0.84451406  0.55620997  0.49409569     0.05310
C2942       C  0.81855760  0.57789091  0.49585276    -0.03250
Br2943     Br  0.78402249  0.57140914  0.52468009    -0.02940
H2944       H  0.79481394  0.61769730  0.47245961     0.09220
H2945       H  0.89063213  0.54774846  0.47328442     0.07240
Br2946     Br  0.90860710  0.60502852  0.43843070    -0.03370
C2947       C  0.93855158  0.58095794  0.36996573    -0.10000
C2948       C  0.93896460  0.60903385  0.35158243     0.06190
C2949       C  0.96513280  0.61448139  0.33172096    -0.03770
C2950       C  0.98847119  0.59079943  0.32843312    -0.08220
C2951       C  0.98959462  0.56334714  0.34848435     0.05310
C2952       C  0.96534971  0.56078049  0.37181176    -0.03250
Br2953     Br  0.96663063  0.53020222  0.40617463    -0.02940
H2954       H  0.91778689  0.57505326  0.38369503     0.09220
H2955       H  0.00554093  0.59492325  0.30997080     0.07240
Br2956     Br  0.96857869  0.65257899  0.30612201    -0.03370
C2957       C  0.98077952  0.72139618  0.47192354    -0.10000
C2958       C  0.98389683  0.69564369  0.49336470     0.06190
C2959       C  0.95972318  0.67249458  0.49366953    -0.03770
C2960       C  0.93210395  0.67698591  0.47484146    -0.08220
C2961       C  0.92985851  0.70202131  0.45228105     0.05310
C2962       C  0.95475651  0.72435684  0.45090999    -0.03250
Br2963     Br  0.95500205  0.75893832  0.42037392    -0.02940
H2964       H  0.99959717  0.73865241  0.47074458     0.09220
H2965       H  0.91334223  0.65952025  0.47620395     0.07240
Br2966     Br  0.96575909  0.63199438  0.01428366    -0.03370
C2967       C  0.82514532  0.96875543  0.43891208    -0.10000
C2968       C  0.84392099  0.94188100  0.44561423     0.06190
C2969       C  0.86502527  0.94301827  0.47236090    -0.03770
C2970       C  0.86583931  0.97012882  0.49214395    -0.08220
C2971       C  0.84515408  0.99632711  0.48694816     0.05310
C2972       C  0.82605006  0.99588523  0.45815953    -0.03250
Br2973     Br  0.79952142  0.02986330  0.44113836    -0.02940
H2974       H  0.80952128  0.96895725  0.41796292     0.09220
H2975       H  0.88326080  0.97071155  0.51150210     0.07240
Br2976     Br  0.89453786  0.90942772  0.48283212    -0.03370
C2977       C  0.93978385  0.82615892  0.46639150    -0.10000
C2978       C  0.93860962  0.84960855  0.44227363     0.06190
C2979       C  0.96013803  0.87525948  0.44407024    -0.03770
C2980       C  0.98427173  0.87532092  0.46751535    -0.08220
C2981       C  0.98737167  0.85028431  0.48986159     0.05310
C2982       C  0.96401716  0.82606121  0.48980157    -0.03250
Br2983     Br  0.96681213  0.78928950  0.51682414    -0.02940
H2984       H  0.92284108  0.80674272  0.46599015     0.09220
H2985       H  0.00133393  0.89464903  0.46777318     0.07240
Br2986     Br  0.95605767  0.91203561  0.41686593    -0.03370
C2987       C  0.95433917  0.99849496  0.33532730    -0.10000
C2988       C  0.98606094  0.98655869  0.33700170     0.06190
C2989       C  0.98838781  0.95294463  0.33148002    -0.03770
C2990       C  0.96214978  0.93297967  0.33407398    -0.08220
C2991       C  0.93156828  0.94487015  0.33912527     0.05310
C2992       C  0.92751354  0.97837578  0.33833297    -0.03250
Br2993     Br  0.88618424  0.99818240  0.33956399    -0.02940
H2994       H  0.94944074  0.02312289  0.33053084     0.09220
H2995       H  0.96586431  0.90748198  0.33143626     0.07240
Br2996     Br  0.52334293  0.93131544  0.31248230    -0.03370
O2997       O  0.88839058  0.83361493  0.92098085    -0.86200
O2998       O  0.85412933  0.88802003  0.92945707    -0.83240
C2999       C  0.84226281  0.91480667  0.92253191     0.97260
O3000       O  0.82834536  0.91885427  0.89562100    -0.83280
O3001       O  0.87975638  0.92786030  0.85680264    -0.85920
C3002       C  0.90550082  0.92095658  0.84308669     1.01790
O3003       O  0.91013480  0.89272206  0.83319286    -0.78680
O3004       O  0.92019388  0.85880651  0.88867738    -0.78870
C3005       C  0.91455964  0.84732759  0.91603791     1.01740
O3006       O  0.83768917  0.80726724  0.88341058    -0.86190
O3007       O  0.79978999  0.85952492  0.89691667    -0.83260
C3008       C  0.78484773  0.86773857  0.87157853     0.97280
O3009       O  0.79939895  0.87901437  0.84776176    -0.83290
O3010       O  0.84938643  0.89070546  0.80657787    -0.85890
C3011       C  0.85901267  0.86549124  0.79280303     1.01760
O3012       O  0.87123691  0.84278095  0.80872994    -0.78710
O3013       O  0.88525949  0.80501105  0.86173040    -0.78860
C3014       C  0.86019959  0.79132383  0.87140718     1.01720
Cr3015     Cr  0.84583341  0.84858641  0.90469862     1.93740
Cr3016     Cr  0.84064581  0.90121962  0.85280293     1.93210
Cr3017     Cr  0.89401530  0.85078350  0.84967773     1.39100
O3018       O  0.85973856  0.86649678  0.86859291    -1.23950
O3019       O  0.82258899  0.65628501  0.92632007    -0.86200
O3020       O  0.87709426  0.69017734  0.93456382    -0.83240
C3021       C  0.90370737  0.70204954  0.92802082     0.97260
O3022       O  0.90852486  0.71348175  0.90036300    -0.83280
O3023       O  0.91863191  0.66002158  0.86494190    -0.85920
C3024       C  0.91274890  0.63273100  0.85383534     1.01790
O3025       O  0.88502812  0.62583146  0.84395636    -0.78680
O3026       O  0.84890669  0.62224031  0.89714705    -0.78870
C3027       C  0.83699129  0.63000974  0.92367105     1.01740
O3028       O  0.79762422  0.70442645  0.88437429    -0.86190
O3029       O  0.84981897  0.74275061  0.89783951    -0.83260
C3030       C  0.85920372  0.75627198  0.87239757     0.97280
O3031       O  0.87042700  0.74010947  0.84955684    -0.83290
O3032       O  0.88353174  0.68750360  0.81161468    -0.85890
C3033       C  0.85949575  0.67626609  0.79697813     1.01760
O3034       O  0.83689157  0.66364583  0.81222668    -0.78710
O3035       O  0.79639286  0.65576321  0.86426240    -0.78860
C3036       C  0.78225444  0.68137938  0.87249786     1.01720
Cr3037     Cr  0.83837058  0.69729279  0.90769770     1.93740
Cr3038     Cr  0.89220674  0.69878532  0.85769958     1.93210
Cr3039     Cr  0.84256671  0.64483767  0.85582416     1.39100
O3040       O  0.85726086  0.68072726  0.87304220    -1.23950
O3041       O  0.64343520  0.71380789  0.92423897    -0.86200
O3042       O  0.68142245  0.66161217  0.93280800    -0.83240
C3043       C  0.69580398  0.63624374  0.92595435     0.97260
O3044       O  0.70815515  0.63262202  0.89864656    -0.83280
O3045       O  0.65355518  0.62035936  0.86370583    -0.85920
C3046       C  0.62716501  0.62545901  0.84978442     1.01790
O3047       O  0.62115745  0.65282691  0.83783214    -0.78680
O3048       O  0.61128688  0.68993584  0.89046375    -0.78870
C3049       C  0.61674671  0.70098244  0.91812321     1.01740
O3050       O  0.69271638  0.74180401  0.88515371    -0.86190
O3051       O  0.73286264  0.69131141  0.89751471    -0.83260
C3052       C  0.74713584  0.68235222  0.87219913     0.97280
O3053       O  0.73173936  0.67086841  0.84863613    -0.83290
O3054       O  0.67947772  0.65470055  0.80951713    -0.85890
C3055       C  0.67049249  0.67962319  0.79451313     1.01760
O3056       O  0.65931618  0.70308007  0.80983646    -0.78710
O3057       O  0.64559894  0.74280679  0.86139716    -0.78860
C3058       C  0.67030929  0.75702446  0.87178810     1.01720
Cr3059     Cr  0.68655886  0.70072823  0.90693206     1.93740
Cr3060     Cr  0.69159875  0.64748704  0.85612138     1.93210
Cr3061     Cr  0.63714801  0.69635499  0.85143794     1.39100
O3062       O  0.67204697  0.68196773  0.87119937    -1.23950
O3063       O  0.70977405  0.89320137  0.92325598    -0.86200
O3064       O  0.65662029  0.85855135  0.93342528    -0.83240
C3065       C  0.62976914  0.84689613  0.92723241     0.97260
O3066       O  0.62401465  0.83561002  0.89953944    -0.83280
O3067       O  0.61486210  0.88977877  0.86484614    -0.85920
C3068       C  0.62105054  0.91629797  0.85221685     1.01790
O3069       O  0.64735164  0.91977644  0.83836751    -0.78680
O3070       O  0.68220848  0.92653076  0.89335757    -0.78870
C3071       C  0.69507418  0.91937120  0.91992294     1.01740
O3072       O  0.73490670  0.84438613  0.88289897    -0.86190
O3073       O  0.68281264  0.80585549  0.89664055    -0.83260
C3074       C  0.67156659  0.79203572  0.87187790     0.97280
O3075       O  0.65944163  0.80786109  0.84893705    -0.83290
O3076       O  0.64805535  0.86031017  0.80989874    -0.85890
C3077       C  0.67334033  0.86877788  0.79563406     1.01760
O3078       O  0.69622964  0.88101291  0.81122444    -0.78710
O3079       O  0.73545376  0.89339015  0.86372598    -0.78860
C3080       C  0.74992132  0.86790833  0.87172451     1.01720
Cr3081     Cr  0.69453801  0.85137393  0.90616163     1.93740
Cr3082     Cr  0.63937614  0.84988748  0.85660766     1.93210
Cr3083     Cr  0.68951777  0.90242436  0.85312579     1.39100
O3084       O  0.67505927  0.86715962  0.87132660    -1.23950
O3085       O  0.64707551  0.83337564  0.63193788    -0.86200
O3086       O  0.68099901  0.88718405  0.62302539    -0.83240
C3087       C  0.69229232  0.91412893  0.62961713     0.97260
O3088       O  0.70646522  0.91902758  0.65609785    -0.83280
O3089       O  0.65535306  0.92858654  0.69357903    -0.85920
C3090       C  0.62921638  0.92207403  0.70641197     1.01790
O3091       O  0.62423684  0.89428801  0.71679541    -0.78680
O3092       O  0.61507468  0.86038122  0.66244500    -0.78870
C3093       C  0.62078782  0.84752026  0.63578991     1.01740
O3094       O  0.69778826  0.80702042  0.67059944    -0.86190
O3095       O  0.73539355  0.85893673  0.65587585    -0.83260
C3096       C  0.75035932  0.86755832  0.68093067     0.97280
O3097       O  0.73580998  0.87943821  0.70456626    -0.83290
O3098       O  0.68510199  0.89233767  0.74551076    -0.85890
C3099       C  0.67430131  0.86811119  0.76008633     1.01760
O3100       O  0.66190926  0.84522965  0.74459570    -0.78710
O3101       O  0.64963146  0.80636303  0.69096432    -0.78860
C3102       C  0.67462000  0.79175319  0.68189667     1.01720
Cr3103     Cr  0.68952353  0.84817590  0.64832147     1.93740
Cr3104     Cr  0.69432423  0.90184644  0.69900414     1.93210
Cr3105     Cr  0.64056028  0.85229887  0.70220252     1.39100
O3106       O  0.67541094  0.86697552  0.68387015    -1.23950
O3107       O  0.82819468  0.89153284  0.62942128    -0.86200
O3108       O  0.87995355  0.85409270  0.62067402    -0.83240
C3109       C  0.90733083  0.84354435  0.62738122     0.97260
O3110       O  0.91312300  0.83213556  0.65510873    -0.83280
O3111       O  0.92048902  0.88511905  0.69225007    -0.85920
C3112       C  0.91453296  0.91148090  0.70560131     1.01790
O3113       O  0.88741570  0.91602931  0.71743840    -0.78680
O3114       O  0.85452973  0.92378202  0.66098174    -0.78870
C3115       C  0.84266722  0.91760684  0.63373501     1.01740
O3116       O  0.80009066  0.84326390  0.66940344    -0.86190
O3117       O  0.85076879  0.80208518  0.65683029    -0.83260
C3118       C  0.86160360  0.78765628  0.68160339     0.97280
O3119       O  0.87508671  0.80302690  0.70399210    -0.83290
O3120       O  0.88500615  0.85495281  0.74398396    -0.85890
C3121       C  0.85986432  0.86489356  0.75760308     1.01760
O3122       O  0.83744895  0.87772447  0.74165032    -0.78710
O3123       O  0.80005380  0.89212060  0.68851613    -0.78860
C3124       C  0.78531117  0.86705769  0.68058267     1.01720
Cr3125     Cr  0.84126418  0.84861759  0.64709421     1.93740
Cr3126     Cr  0.89551631  0.84529430  0.69782804     1.93210
Cr3127     Cr  0.84578528  0.89937331  0.70050678     1.39100
O3128       O  0.86040430  0.86374307  0.68232102    -1.23950
O3129       O  0.68142979  0.65990640  0.62083491    -0.86200
O3130       O  0.64821293  0.71499500  0.62827238    -0.83240
C3131       C  0.62094763  0.70391835  0.63344400     0.97260
O3132       O  0.61394365  0.69268907  0.66044389    -0.83280
O3133       O  0.61873129  0.65645498  0.71352995    -0.85920
C3134       C  0.62264771  0.62932115  0.70094492     1.01790
O3135       O  0.64954591  0.62140661  0.69012497    -0.78680
O3136       O  0.70413635  0.62800300  0.65577497    -0.78870
C3137       C  0.69307345  0.63294858  0.62779801     1.01740
O3138       O  0.73434591  0.68650632  0.65726831    -0.86190
O3139       O  0.69698407  0.74058019  0.66936768    -0.83260
C3140       C  0.67427207  0.75655177  0.68127300     0.97280
O3141       O  0.64911426  0.74292711  0.69032422    -0.83290
O3142       O  0.65980907  0.70329546  0.74312426    -0.85890
C3143       C  0.67037627  0.67954923  0.75880812     1.01760
O3144       O  0.67871011  0.65430575  0.74424190    -0.78710
O3145       O  0.73217328  0.66583770  0.70590031    -0.78860
C3146       C  0.74817197  0.67707875  0.68284490     1.01720
Cr3147     Cr  0.68918036  0.69905585  0.64708115     1.93740
Cr3148     Cr  0.63844235  0.69776928  0.70047177     1.92710
Cr3149     Cr  0.68981602  0.64541361  0.69801496     1.39100
O3150       O  0.67291423  0.68120628  0.68229558    -1.23950
O3151       O  0.88675330  0.70881176  0.63304836    -0.86200
O3152       O  0.85212424  0.65504596  0.62549520    -0.83240
C3153       C  0.83972414  0.62866936  0.63231335     0.97260
O3154       O  0.82431014  0.62605403  0.65802837    -0.83280
O3155       O  0.87769491  0.61481995  0.69386525    -0.85920
C3156       C  0.90447045  0.62007176  0.70661925     1.01790
O3157       O  0.91025579  0.64710170  0.71904055    -0.78680
O3158       O  0.91917765  0.68288125  0.66511967    -0.78870
C3159       C  0.91332455  0.69538865  0.63809808     1.01740
O3160       O  0.83788660  0.73715260  0.67044426    -0.86190
O3161       O  0.79823203  0.68473756  0.65823762    -0.83260
C3162       C  0.78346976  0.67660424  0.68352276     0.97280
O3163       O  0.79860774  0.66554478  0.70753973    -0.83290
O3164       O  0.85013998  0.65047002  0.74726139    -0.85890
C3165       C  0.85981142  0.67535408  0.76157361     1.01760
O3166       O  0.87252887  0.69784291  0.74610946    -0.78710
O3167       O  0.88545220  0.73712017  0.69359292    -0.78860
C3168       C  0.86109590  0.75216269  0.68275730     1.01720
Cr3169     Cr  0.84441757  0.69493776  0.64973848     1.93740
Cr3170     Cr  0.83927355  0.64205697  0.70080083     1.93210
Cr3171     Cr  0.89404097  0.69048564  0.70453725     1.39100
O3172       O  0.85870298  0.67656708  0.68573075    -1.23950
C3173       C  0.51852026  0.50514463  0.70750329    -0.00280
C3174       C  0.51635220  0.53828938  0.70954120    -0.00290
C3175       C  0.51610798  0.50708020  0.84496016    -0.00280
C3176       C  0.51780066  0.54048168  0.84702549    -0.00290
C3177       C  0.69478669  0.52306202  0.50869177    -0.00280
C3178       C  0.69009819  0.52330297  0.54203156    -0.00290
C3179       C  0.51451368  0.69274487  0.51211689    -0.00280
C3180       C  0.51532071  0.68956993  0.54519729    -0.00290
C3181       C  0.84539887  0.52444588  0.51008931    -0.00280
C3182       C  0.85027628  0.52199539  0.54309434    -0.00290
C3183       C  0.51764340  0.84844782  0.50924901    -0.00280
C3184       C  0.51762929  0.84949036  0.54244625    -0.00290
C3185       C  0.86154879  0.60449722  0.58228108    -0.10000
C3186       C  0.84298539  0.60124915  0.61003306     0.06190
C3187       C  0.83067223  0.57083048  0.61713086    -0.03770
C3188       C  0.82994156  0.54754014  0.59326008    -0.08220
C3189       C  0.84810651  0.55062667  0.56506291     0.05310
C3190       C  0.86663091  0.57854490  0.56178097    -0.03250
Br3191     Br  0.90473354  0.57992688  0.53704981    -0.02940
H3192       H  0.87475777  0.62625860  0.57820878     0.09220
H3193       H  0.81771541  0.52544049  0.59840099     0.07240
Br3194     Br  0.82287549  0.55635988  0.66035050    -0.03370
C3195       C  0.95919029  0.66772281  0.61289485    -0.10000
C3196       C  0.93744845  0.69338118  0.61223191     0.06190
C3197       C  0.93909480  0.71561850  0.58664708    -0.03770
C3198       C  0.96300750  0.71255121  0.56354458    -0.08220
C3199       C  0.98548237  0.68762554  0.56489493     0.05310
C3200       C  0.98283514  0.66464743  0.58965543    -0.03250
Br3201     Br  0.51101697  0.62849259  0.59314930    -0.02940
H3202       H  0.95790223  0.64984203  0.63172302     0.09220
H3203       H  0.96511568  0.73066058  0.54535726     0.07240
Br3204     Br  0.91140131  0.75218694  0.58303080    -0.03370
C3205       C  0.97021652  0.56508550  0.73729874    -0.10000
C3206       C  0.98398104  0.55422458  0.70854664     0.06190
C3207       C  0.96831838  0.56164404  0.67909678    -0.03770
C3208       C  0.94186377  0.58249622  0.67861014    -0.08220
C3209       C  0.92934295  0.59460133  0.70736491     0.05310
C3210       C  0.94202518  0.58338212  0.73667102    -0.03250
Br3211     Br  0.91815073  0.58861784  0.77517518    -0.02940
H3212       H  0.98088639  0.55847132  0.76024632     0.09220
H3213       H  0.93163443  0.58995196  0.65572032     0.07240
Br3214     Br  0.98419055  0.54646223  0.63881530    -0.03370
C3215       C  0.54282375  0.71574901  0.59119355    -0.10000
C3216       C  0.54499310  0.69430872  0.56514118     0.06190
C3217       C  0.57359205  0.67672501  0.56154829    -0.03770
C3218       C  0.59950518  0.68263610  0.58225191    -0.08220
C3219       C  0.59661885  0.70391199  0.60808357     0.05310
C3220       C  0.56796587  0.72024805  0.61273637    -0.03250
Br3221     Br  0.56174513  0.74711690  0.64969852    -0.02940
H3222       H  0.52065422  0.72790761  0.59590481     0.09220
H3223       H  0.62109092  0.66866153  0.57986059     0.07240
Br3224     Br  0.57685890  0.64025389  0.53404674    -0.03370
C3225       C  0.71603719  0.55637415  0.58410865    -0.10000
C3226       C  0.69147027  0.55344804  0.56123375     0.06190
C3227       C  0.66812787  0.57790294  0.55903728    -0.03770
C3228       C  0.66981105  0.60443813  0.57972644    -0.08220
C3229       C  0.69390138  0.60671299  0.60350698     0.05310
C3230       C  0.71717717  0.58226114  0.60518855    -0.03250
Br3231     Br  0.75116573  0.58238078  0.63597010    -0.02940
H3232       H  0.73412186  0.53784694  0.58608452     0.09220
H3233       H  0.65131377  0.62244636  0.57824330     0.07240
Br3234     Br  0.63250082  0.57454726  0.52991535    -0.03370
C3235       C  0.60106403  0.57691004  0.71658074    -0.10000
C3236       C  0.59616747  0.60599364  0.70107735     0.06190
C3237       C  0.56533907  0.61317973  0.68935464    -0.03770
C3238       C  0.54084140  0.59073754  0.69192817    -0.08220
C3239       C  0.54489625  0.56134178  0.70846973     0.05310
C3240       C  0.57568623  0.55623391  0.72260703    -0.03250
Br3241     Br  0.58545106  0.52746367  0.75622993    -0.02940
H3242       H  0.62424590  0.57196708  0.72736259     0.09220
H3243       H  0.51826433  0.59718932  0.68105703     0.07240
Br3244     Br  0.55465853  0.65305674  0.66939874    -0.03370
C3245       C  0.95914736  0.82351988  0.60756174    -0.10000
C3246       C  0.93326806  0.84423281  0.60303989     0.06190
C3247       C  0.93428194  0.86606729  0.57691115    -0.03770
C3248       C  0.96131718  0.86749219  0.55713397    -0.08220
C3249       C  0.98755485  0.84691534  0.56217889     0.05310
C3250       C  0.98560435  0.82454146  0.58764370    -0.03250
Br3251     Br  0.51719890  0.79294503  0.59606100    -0.02940
H3252       H  0.95887936  0.80610337  0.62688775     0.09220
H3253       H  0.96212926  0.88537616  0.53831864     0.07240
Br3254     Br  0.90069220  0.89584642  0.56769742    -0.03370
C3255       C  0.87066574  0.96390188  0.61024221    -0.10000
C3256       C  0.84627506  0.94127933  0.60727378     0.06190
C3257       C  0.82756635  0.94149671  0.57877104    -0.03770
C3258       C  0.83002748  0.96687942  0.55691622    -0.08220
C3259       C  0.85305905  0.99076331  0.56104434     0.05310
C3260       C  0.87499327  0.98746395  0.58698426    -0.03250
Br3261     Br  0.91114013  0.51474493  0.59275930    -0.02940
H3262       H  0.88697264  0.96305511  0.63064332     0.09220
H3263       H  0.81357337  0.96803412  0.53689110     0.07240
Br3264     Br  0.79923662  0.90776019  0.56729416    -0.03370
C3265       C  0.96503071  0.93389711  0.68556551    -0.10000
C3266       C  0.93945185  0.93691305  0.70660160     0.06190
C3267       C  0.93867473  0.96402268  0.72698288    -0.03770
C3268       C  0.96415878  0.98584648  0.72719650    -0.08220
C3269       C  0.98965850  0.98318134  0.70548797     0.05310
C3270       C  0.98930976  0.95642551  0.68447793    -0.03250
Br3271     Br  0.52110172  0.94742856  0.65336479    -0.02940
H3272       H  0.96610992  0.91378988  0.66920960     0.09220
H3273       H  0.96428963  0.00423221  0.74529686     0.07240
Br3274     Br  0.90396141  0.97295353  0.75526027    -0.03370
C3275       C  0.57453735  0.87478228  0.60885070    -0.10000
C3276       C  0.59681309  0.84939329  0.60921333     0.06190
C3277       C  0.59625817  0.82745349  0.58335720    -0.03770
C3278       C  0.57212011  0.82958758  0.55998819    -0.08220
C3279       C  0.54781510  0.85252737  0.56189696     0.05310
C3280       C  0.55074548  0.87672671  0.58495207    -0.03250
Br3281     Br  0.52439447  0.91407251  0.58152397    -0.02940
H3282       H  0.57584801  0.89338102  0.62689994     0.09220
H3283       H  0.57153106  0.81249694  0.54093222     0.07240
Br3284     Br  0.62579390  0.79247573  0.57923323    -0.03370
C3285       C  0.67280627  0.96795174  0.61432132    -0.10000
C3286       C  0.68924859  0.94012627  0.60619854     0.06190
C3287       C  0.70230897  0.93758792  0.57574192    -0.03770
C3288       C  0.70363910  0.96451656  0.55625289    -0.08220
C3289       C  0.68673907  0.99307338  0.56289791     0.05310
C3290       C  0.66936066  0.99316569  0.59230172    -0.03250
Br3291     Br  0.63881772  0.52503955  0.60435446    -0.02940
H3292       H  0.66156684  0.96952747  0.63751597     0.09220
H3293       H  0.71943987  0.96204951  0.53686024     0.07240
Br3294     Br  0.71886886  0.89795872  0.55971387    -0.03370
C3295       C  0.60030116  0.97059359  0.68582750    -0.10000
C3296       C  0.60366771  0.94648181  0.70923357     0.06190
C3297       C  0.58038282  0.94382203  0.73321767    -0.03770
C3298       C  0.55354572  0.96372981  0.73240210    -0.08220
C3299       C  0.54960453  0.98742707  0.70856025     0.05310
C3300       C  0.57351996  0.99081857  0.68508089    -0.03250
Br3301     Br  0.56814360  0.51838809  0.64845536    -0.02940
H3302       H  0.61739252  0.97239778  0.66673466     0.09220
H3303       H  0.53549431  0.96088350  0.75054541     0.07240
Br3304     Br  0.58452067  0.91341282  0.76777237    -0.03370
C3305       C  0.57839929  0.82608347  0.94478733    -0.10000
C3306       C  0.60407868  0.84598771  0.95155288     0.06190
C3307       C  0.60247850  0.86568584  0.97914628    -0.03770
C3308       C  0.57393756  0.86770715  0.99654836    -0.08220
C3309       C  0.54798924  0.84738317  0.98973257     0.05310
C3310       C  0.55121910  0.82623577  0.96337257    -0.03250
Br3311     Br  0.52057053  0.79608956  0.94950930    -0.02940
H3312       H  0.57931158  0.80992590  0.92445059     0.09220
H3313       H  0.57244130  0.88495503  0.01581289     0.07240
Br3314     Br  0.63843397  0.88842552  0.99609717    -0.03370
C3315       C  0.57257201  0.94167910  0.87597959    -0.10000
C3316       C  0.59723186  0.94286254  0.85328944     0.06190
C3317       C  0.59831723  0.96958389  0.83251784    -0.03770
C3318       C  0.57250665  0.99094369  0.83133470    -0.08220
C3319       C  0.54644529  0.98828697  0.85190161     0.05310
C3320       C  0.54840545  0.96497528  0.87646689    -0.03250
Br3321     Br  0.51864346  0.96338910  0.91077688    -0.02940
H3322       H  0.57198849  0.92252825  0.89352112     0.09220
H3323       H  0.57223974  0.00941383  0.81377946     0.07240
Br3324     Br  0.63343758  0.97815744  0.80446238    -0.03370
C3325       C  0.72262253  0.95167641  0.96107002    -0.10000
C3326       C  0.69390829  0.94201597  0.94677655     0.06190
C3327       C  0.66488720  0.95599328  0.95686697    -0.03770
C3328       C  0.66512961  0.98006790  0.98018419    -0.08220
C3329       C  0.69417080  0.99216170  0.99151787     0.05310
C3330       C  0.72292732  0.97749703  0.98219345    -0.03250
Br3331     Br  0.76241016  0.99085289  0.00064680    -0.02940
H3332       H  0.74498155  0.94078124  0.95403335     0.09220
H3333       H  0.64299219  0.99163944  0.98682551     0.07240
Br3334     Br  0.62478617  0.94623333  0.93701099    -0.03370
C3335       C  0.55972057  0.57273978  0.81894219    -0.10000
C3336       C  0.54979835  0.55732452  0.84719517     0.06190
C3337       C  0.56923271  0.56059473  0.87498204    -0.03770
C3338       C  0.59664891  0.57994493  0.87419732    -0.08220
C3339       C  0.60296815  0.59947294  0.84737274     0.05310
C3340       C  0.58416892  0.59534033  0.81945484    -0.03250
Br3341     Br  0.58947289  0.62120747  0.78189366    -0.02940
H3342       H  0.54690891  0.56876341  0.79658292     0.09220
H3343       H  0.61107417  0.58232123  0.89584565     0.07240
Br3344     Br  0.55820304  0.54151571  0.91519315    -0.03370
C3345       C  0.69102407  0.57959839  0.93458540    -0.10000
C3346       C  0.69673047  0.60912722  0.94815483     0.06190
C3347       C  0.70588178  0.61092026  0.98054042    -0.03770
C3348       C  0.70806704  0.58284374  0.99891374    -0.08220
C3349       C  0.69909676  0.55250818  0.98659688     0.05310
C3350       C  0.69378951  0.55165833  0.95222507    -0.03250
Br3351     Br  0.69593692  0.51673727  0.92235320    -0.02940
H3352       H  0.68554717  0.57824091  0.90901469     0.09220
H3353       H  0.71804787  0.58560183  0.02254149     0.07240
Br3354     Br  0.71709419  0.65069316  0.00032661    -0.03370
C3355       C  0.58932006  0.72159647  0.96787551    -0.10000
C3356       C  0.59163844  0.69852528  0.94338625     0.06190
C3357       C  0.56940095  0.67320974  0.94345779    -0.03770
C3358       C  0.54615280  0.67127645  0.96710935    -0.08220
C3359       C  0.54359230  0.69425399  0.99133000     0.05310
C3360       C  0.56511994  0.71995743  0.99111166    -0.03250
Br3361     Br  0.55992462  0.75500323  0.01940051    -0.02940
H3362       H  0.60541817  0.74172426  0.96811358     0.09220
H3363       H  0.52928426  0.65177494  0.96625258     0.07240
Br3364     Br  0.56851872  0.63988241  0.91235255    -0.03370
C3365       C  0.81621859  0.60311228  0.97347200    -0.10000
C3366       C  0.84074937  0.60809706  0.95128418     0.06190
C3367       C  0.86897885  0.59019982  0.95450212    -0.03770
C3368       C  0.86965150  0.56300249  0.97344069    -0.08220
C3369       C  0.84451397  0.55620997  0.99409566     0.05310
C3370       C  0.81855751  0.57789091  0.99585272    -0.03250
Br3371     Br  0.78402240  0.57140916  0.02468005    -0.02940
H3372       H  0.79481386  0.61769731  0.97245956     0.09220
H3373       H  0.89063206  0.54774848  0.97328443     0.07240
Br3374     Br  0.90860707  0.60502866  0.93843089    -0.03370
C3375       C  0.93855174  0.58095817  0.86996593    -0.10000
C3376       C  0.93896461  0.60903393  0.85158238     0.06190
C3377       C  0.96513270  0.61448134  0.83172072    -0.03770
C3378       C  0.98847109  0.59079936  0.82843294    -0.08220
C3379       C  0.98959466  0.56334724  0.84848440     0.05310
C3380       C  0.96534991  0.56078079  0.87181200    -0.03250
Br3381     Br  0.96663100  0.53020271  0.90617504    -0.02940
H3382       H  0.91778710  0.57505354  0.88369532     0.09220
H3383       H  0.00554073  0.59492302  0.80997048     0.07240
Br3384     Br  0.96857844  0.65257878  0.80612151    -0.03370
C3385       C  0.98077954  0.72139615  0.97192346    -0.10000
C3386       C  0.98389680  0.69564367  0.99336465     0.06190
C3387       C  0.95972311  0.67249462  0.99366951    -0.03770
C3388       C  0.93210386  0.67698601  0.97484147    -0.08220
C3389       C  0.92985847  0.70202138  0.95228102     0.05310
C3390       C  0.95475653  0.72435684  0.95090992    -0.03250
Br3391     Br  0.95500215  0.75893827  0.92037380    -0.02940
H3392       H  0.99959723  0.73865233  0.97074447     0.09220
H3393       H  0.91334210  0.65952041  0.97620401     0.07240
Br3394     Br  0.96575923  0.63199437  0.51428372    -0.03370
C3395       C  0.82514541  0.96875545  0.93891207    -0.10000
C3396       C  0.84392107  0.94188101  0.94561423     0.06190
C3397       C  0.86502533  0.94301825  0.97236091    -0.03770
C3398       C  0.86583937  0.97012880  0.99214397    -0.08220
C3399       C  0.84515415  0.99632710  0.98694818     0.05310
C3400       C  0.82605015  0.99588523  0.95815954    -0.03250
Br3401     Br  0.79952151  0.02986331  0.94113837    -0.02940
H3402       H  0.80952138  0.96895727  0.91796291     0.09220
H3403       H  0.88326086  0.97071151  0.01150212     0.07240
Br3404     Br  0.89453789  0.90942768  0.98283215    -0.03370
C3405       C  0.93978390  0.82615886  0.96639144    -0.10000
C3406       C  0.93860968  0.84960852  0.94227359     0.06190
C3407       C  0.96013807  0.87525945  0.94407022    -0.03770
C3408       C  0.98427177  0.87532087  0.96751533    -0.08220
C3409       C  0.98737172  0.85028425  0.98986156     0.05310
C3410       C  0.96401721  0.82606115  0.98980152    -0.03250
Br3411     Br  0.96681217  0.78928943  0.01682408    -0.02940
H3412       H  0.92284114  0.80674266  0.96599006     0.09220
H3413       H  0.00133397  0.89464898  0.96777318     0.07240
Br3414     Br  0.95605770  0.91203561  0.91686595    -0.03370
C3415       C  0.95433922  0.99849494  0.83532714    -0.10000
C3416       C  0.98606098  0.98655867  0.83700163     0.06190
C3417       C  0.98838786  0.95294459  0.83148000    -0.03770
C3418       C  0.96214983  0.93297964  0.83407397    -0.08220
C3419       C  0.93156832  0.94487014  0.83912518     0.05310
C3420       C  0.92751359  0.97837577  0.83833280    -0.03250
Br3421     Br  0.88618428  0.99818239  0.83956369    -0.02940
H3422       H  0.94944081  0.02312287  0.83053065     0.09220
H3423       H  0.96586436  0.90748195  0.83143631     0.07240
Br3424     Br  0.52334304  0.93131529  0.81248240    -0.03370
loop_ 
_geom_bond_atom_site_label_1 
_geom_bond_atom_site_label_2 
_geom_bond_distance 
_geom_bond_site_symmetry_2 
_ccdc_geom_bond_type 
O1          Cr19   1.999       .  S
O1            C9   1.261       .  A
O2          Cr19   1.978       .  S
O2            C3   1.256       .  A
C3            O4   1.266       .  A
C3          C400   1.488       .  S
O4          Cr20   1.999       .  S
O5          Cr20   1.995       .  S
O5            C6   1.259       .  A
C6            O7   1.267       .  A
C6          C423   1.498       .  S
O7          Cr21   2.008       .  S
O8          Cr21   1.978       .  S
O8            C9   1.259       .  A
C9          C410   1.481       .  S
O10         Cr19   1.975       .  S
O10          C18   1.261       .  A
O11         Cr19   2.005       .  S
O11          C12   1.265       .  A
C12          O13   1.261       .  A
C12          C84   1.465       .  S
O13         Cr20   1.979       .  S
O14         Cr20   2.008       .  S
O14          C15   1.268       .  A
C15          O16   1.261       .  A
C15         C125   1.463       .  S
O16         Cr21   1.972       .  S
O17         Cr21   2.017       .  S
O17          C18   1.269       .  A
C18          C34   1.469       .  S
Cr19         O22   1.781       .  S
Cr20         O22   1.777       .  S
Cr21         O22   1.770       .  S
O23         Cr41   2.002       .  S
O23          C31   1.258       .  A
O24         Cr41   1.982       .  S
O24          C25   1.257       .  A
C25          O26   1.263       .  A
C25         C393   1.482       .  S
O26         Cr42   1.993       .  S
O27         Cr42   1.981       .  S
O27          C28   1.258       .  A
C28          O29   1.264       .  A
C28         C380   1.481       .  S
O29         Cr43   2.013       .  S
O30         Cr43   1.973       .  S
O30          C31   1.257       .  A
C31         C370   1.474       .  S
O32         Cr41   1.976       .  S
O32          C40   1.262       .  A
O33         Cr41   2.009       .  S
O33          C34   1.266       .  A
C34          O35   1.260       .  A
O35         Cr42   1.979       .  S
O36         Cr42   2.003       .  S
O36          C37   1.265       .  A
C37          O38   1.264       .  A
C37         C169   1.472       .  S
O38         Cr43   1.985       .  S
O39         Cr43   2.022       .  S
O39          C40   1.272       .  A
C40          C56   1.473       .  S
Cr41         O44   1.790       .  S
Cr42         O44   1.778       .  S
Cr43         O44   1.777       .  S
O45         Cr63   2.027       .  S
O45          C53   1.268       .  A
O46         Cr63   1.972       .  S
O46          C47   1.253       .  A
C47          O48   1.261       .  A
C47         C350   1.462       .  S
O48         Cr64   1.989       .  S
O49         Cr64   1.992       .  S
O49          C50   1.260       .  A
C50          O51   1.271       .  A
C50         C343   1.495       .  S
O51         Cr65   2.025       .  S
O52         Cr65   1.979       .  S
O52          C53   1.259       .  A
C53         C360   1.499       .  S
O54         Cr63   1.962       .  S
O54          C62   1.256       .  A
O55         Cr63   2.022       .  S
O55          C56   1.272       .  A
C56          O57   1.264       .  A
O57         Cr64   1.980       .  S
O58         Cr64   2.018       .  S
O58          C59   1.268       .  A
C59          O60   1.262       .  A
C59         C147   1.483       .  S
O60         Cr65   1.992       .  S
O61         Cr65   2.022       .  S
O61          C62   1.271       .  A
C62          C78   1.467       .  S
Cr63         O66   1.784       .  S
Cr64         O66   1.775       .  S
Cr65         O66   1.772       .  S
O67         Cr85   1.997       .  S
O67          C75   1.261       .  A
O68         Cr85   1.984       .  S
O68          C69   1.255       .  A
C69          O70   1.266       .  A
C69         C310   1.486       .  S
O70         Cr86   1.995       .  S
O71         Cr86   1.988       .  S
O71          C72   1.257       .  A
C72          O73   1.259       .  A
C72         C320   1.492       .  S
O73         Cr87   1.998       .  S
O74         Cr87   1.980       .  S
O74          C75   1.258       .  A
C75         C330   1.467       .  S
O76         Cr85   1.979       .  S
O76          C84   1.263       .  A
O77         Cr85   2.010       .  S
O77          C78   1.269       .  A
C78          O79   1.261       .  A
O79         Cr86   1.974       .  S
O80         Cr86   2.026       .  S
O80          C81   1.273       .  A
C81          O82   1.264       .  A
C81         C103   1.478       .  S
O82         Cr87   1.982       .  S
O83         Cr87   2.006       .  S
O83          C84   1.266       .  A
Cr85         O88   1.778       .  S
Cr86         O88   1.770       .  S
Cr87         O88   1.771       .  S
O89        Cr107   2.002       .  S
O89          C97   1.260       .  A
O90        Cr107   1.969       .  S
O90          C91   1.256       .  A
C91          O92   1.262       .  A
C91         C290   1.463       .  S
O92        Cr108   1.993       .  S
O93        Cr108   1.986       .  S
O93          C94   1.256       .  A
C94          O95   1.260       .  A
C94         C300   1.482       .  S
O95        Cr109   1.981       .  S
O96        Cr109   1.985       .  S
O96          C97   1.257       .  A
C97         C280   1.487       .  S
O98        Cr107   1.982       .  S
O98         C106   1.261       .  A
O99        Cr107   2.001       .  S
O99         C100   1.264       .  A
C100        O101   1.263       .  A
C100        C128   1.467       .  S
O101       Cr108   1.983       .  S
O102       Cr108   2.014       .  S
O102        C103   1.269       .  A
C103        O104   1.266       .  A
O104       Cr109   1.988       .  S
O105       Cr109   2.015       .  S
O105        C106   1.271       .  A
C106        C144   1.475       .  S
Cr107       O110   1.780       .  S
Cr108       O110   1.779       .  S
Cr109       O110   1.769       .  S
O111       Cr129   2.011       .  S
O111        C119   1.265       .  A
O112       Cr129   1.983       .  S
O112        C113   1.256       .  A
C113        O114   1.267       .  A
C113        C250   1.494       .  S
O114       Cr130   2.006       .  S
O115       Cr130   1.989       .  S
O115        C116   1.261       .  A
C116        O117   1.258       .  A
C116        C270   1.497       .  S
O117       Cr131   2.005       .  S
O118       Cr131   1.972       .  S
O118        C119   1.259       .  A
C119        C260   1.488       .  S
O120       Cr129   1.983       .  S
O120        C128   1.262       .  A
O121       Cr129   2.026       .  S
O121        C122   1.271       .  A
C122        O123   1.263       .  A
C122        C172   1.487       .  S
O123       Cr130   1.989       .  S
O124       Cr130   2.013       .  S
O124        C125   1.271       .  A
C125        O126   1.261       .  A
O126       Cr131   1.969       .  S
O127       Cr131   2.002       .  S
O127        C128   1.264       .  A
Cr129       O132   1.781       .  S
Cr130       O132   1.773       .  S
Cr131       O132   1.782       .  S
O133       Cr151   1.997       .  S
O133        C141   1.259       .  A
O134       Cr151   1.991       .  S
O134        C135   1.257       .  A
C135        O136   1.254       .  A
C135        C223   1.459       .  S
O136       Cr152   1.958       .  S
O137       Cr152   1.999       .  S
O137        C138   1.262       .  A
C138        O139   1.262       .  A
C138        C240   1.484       .  S
O139       Cr153   1.996       .  S
O140       Cr153   1.999       .  S
O140        C141   1.263       .  A
C141        C233   1.494       .  S
O142       Cr151   2.004       .  S
O142        C150   1.266       .  A
O143       Cr151   1.999       .  S
O143        C144   1.266       .  A
C144        O145   1.263       .  A
O145       Cr152   1.991       .  S
O146       Cr152   1.992       .  S
O146        C147   1.263       .  A
C147        O148   1.268       .  A
O148       Cr153   2.016       .  S
O149       Cr153   2.001       .  S
O149        C150   1.267       .  A
C150        C166   1.481       .  S
Cr151       O154   1.786       .  S
Cr152       O154   1.776       .  S
Cr153       O154   1.774       .  S
O155       Cr173   2.003       .  S
O155        C163   1.261       .  A
O156       Cr173   1.979       .  S
O156        C157   1.257       .  A
C157        O158   1.260       .  A
C157        C190   1.483       .  S
O158       Cr174   1.996       .  S
O159       Cr174   1.993       .  S
O159        C160   1.257       .  A
C160        O161   1.269       .  A
C160        C213   1.488       .  S
O161       Cr175   2.024       .  S
O162       Cr175   1.983       .  S
O162        C163   1.259       .  A
C163        C200   1.486       .  S
O164       Cr173   1.986       .  S
O164        C172   1.266       .  A
O165       Cr173   2.021       .  S
O165        C166   1.272       .  A
C166        O167   1.263       .  A
O167       Cr174   1.987       .  S
O168       Cr174   2.011       .  S
O168        C169   1.267       .  A
C169        O170   1.263       .  A
O170       Cr175   1.981       .  S
O171       Cr175   2.033       .  S
O171        C172   1.275       .  A
Cr173       O176   1.777       .  S
Cr174       O176   1.780       .  S
Cr175       O176   1.771       .  S
C177        C178   1.393       .  D
C177       C2841   1.527   1_445  S
C177       C1159   1.496   1_545  S
C178        C243   1.544       .  S
C178       C1922   1.510   1_455  S
C179        C180   1.404       .  D
C179       C1179   1.517   1_545  S
C179       C2988   1.563   1_445  S
C180        C340   1.520       .  S
C180       C2095   1.519   1_455  S
C181        C182   1.401       .  D
C181       C1617   1.479   1_544  S
C181        C781   1.549   1_554  S
C182        C230   1.496       .  S
C182       C1149   1.541   1_545  S
C183        C184   1.380       .  D
C183        C791   1.504   1_554  S
C183       C2530   1.499   1_454  S
C184        C220   1.502       .  S
C184       C1915   1.505   1_455  S
C185        C186   1.388       .  D
C185        C801   1.486   1_554  S
C185       C1687   1.521   1_544  S
C186        C193   1.511       .  S
C186       C1119   1.508   1_545  S
C187        C188   1.380       .  D
C187        C741   1.517   1_554  S
C187       C2553   1.498   1_454  S
C188        C283   1.501       .  S
C188       C1965   1.516   1_455  S
C189        C190   1.405       .  A
C189        C194   1.399       .  A
C189        H196   1.083       .  S
C190        C191   1.409       .  A
C191        C192   1.392       .  A
C191       Br198   1.926       .  S
C192        C193   1.411       .  A
C192        H197   1.083       .  S
C193        C194   1.415       .  A
C194       Br195   1.911       .  S
C199        C200   1.405       .  A
C199        C204   1.397       .  A
C199        H206   1.084       .  S
C200        C201   1.414       .  A
C201        C202   1.401       .  A
C201       Br208   1.921       .  S
C202        C203   1.403       .  A
C202        H207   1.074       .  S
C203       C1896   1.505       .  S
C203        C204   1.413       .  A
C204      Br1917   1.919       .  S
Br205      C1916   1.919   1_455  S
C209        C210   1.407       .  A
C209        C214   1.405       .  A
C209        H216   1.084       .  S
C210       C1890   1.509       .  S
C210        C211   1.415       .  A
C211        C212   1.408       .  A
C211       Br218   1.916       .  S
C212        C213   1.404       .  A
C212        H217   1.084       .  S
C213        C214   1.402       .  A
C214       Br215   1.909       .  S
C219        C220   1.411       .  A
C219        C224   1.390       .  A
C219        H226   1.077       .  S
C220        C221   1.413       .  A
C221        C222   1.402       .  A
C221       Br228   1.914       .  S
C222        C223   1.402       .  A
C222        H227   1.081       .  S
C223        C224   1.395       .  A
C224       Br225   1.924       .  S
C229        C230   1.400       .  A
C229        C234   1.396       .  A
C229        H236   1.084       .  S
C230        C231   1.415       .  A
C231        C232   1.408       .  A
C231       Br238   1.919       .  S
C232        C233   1.409       .  A
C232        H237   1.080       .  S
C233        C234   1.412       .  A
C234       Br235   1.905       .  S
C239        C240   1.390       .  A
C239        C244   1.401       .  A
C239        H246   1.085       .  S
C240        C241   1.408       .  A
C241        C242   1.402       .  A
C241       Br248   1.912       .  S
C242        C243   1.417       .  A
C242        H247   1.078       .  S
C243        C244   1.428       .  A
C244       Br245   1.883       .  S
C249        C250   1.396       .  A
C249        C254   1.392       .  A
C249        H256   1.084       .  S
C250        C251   1.419       .  A
C251        C252   1.409       .  A
C251       Br258   1.911       .  S
C252        C253   1.407       .  A
C252        H257   1.082       .  S
C253       C1900   1.516       .  S
C253        C254   1.415       .  A
C254      Br1967   1.896       .  S
Br255      C1966   1.896   1_455  S
C259        C260   1.403       .  A
C259        C264   1.394       .  A
C259        H266   1.084       .  S
C260        C261   1.413       .  A
C261        C262   1.402       .  A
C261       Br268   1.910       .  S
C262        C263   1.404       .  A
C262        H267   1.076       .  S
C263       C1042   1.508       .  S
C263        C264   1.415       .  A
C264      Br1121   1.917       .  S
Br265      C1120   1.917   1_545  S
C269        C270   1.397       .  A
C269        C274   1.394       .  A
C269        H276   1.084       .  S
C270        C271   1.418       .  A
C271        C272   1.411       .  A
C271       Br278   1.916       .  S
C272        C273   1.411       .  A
C272        H277   1.077       .  S
C273       C2745   1.527       .  S
C273        C274   1.422       .  A
C274      Br1987   1.904       .  S
Br275      C1986   1.904   1_455  S
C279        C280   1.411       .  A
C279        C284   1.402       .  A
C279        H286   1.083       .  S
C280        C281   1.415       .  A
C281        C282   1.397       .  A
C281       Br288   1.922       .  S
C282        C283   1.400       .  A
C282        H287   1.068       .  S
C283        C284   1.401       .  A
C284       Br285   1.914       .  S
C289        C290   1.394       .  A
C289        C294   1.401       .  A
C289        H296   1.079       .  S
C290        C291   1.388       .  A
C291        C292   1.389       .  A
C291       Br298   1.918       .  S
C292        C293   1.416       .  A
C292        H297   1.054       .  S
C293       C1038   1.541       .  S
C293        C294   1.429       .  A
C294      Br1151   1.916       .  S
Br295      C1150   1.916   1_545  S
C299        C300   1.406       .  A
C299        C304   1.403       .  A
C299        H306   1.078       .  S
C300        C301   1.408       .  A
C301        C302   1.397       .  A
C301       Br308   1.923       .  S
C302        C303   1.409       .  A
C302        H307   1.081       .  S
C303       C1033   1.496       .  S
C303        C304   1.414       .  A
C304      Br1161   1.919       .  S
Br305      C1160   1.919   1_545  S
C309        C310   1.393       .  A
C309        C314   1.384       .  A
C309        H316   1.084       .  S
C310        C311   1.415       .  A
C311        C312   1.408       .  A
C311       Br318   1.917       .  S
C312        C313   1.412       .  A
C312        H317   1.081       .  S
C313        C615   1.517       .  S
C313        C314   1.417       .  A
C314       Br315   1.893       .  S
C319        C320   1.408       .  A
C319        C324   1.403       .  A
C319        H326   1.083       .  S
C320        C321   1.413       .  A
C321        C322   1.401       .  A
C321       Br328   1.924       .  S
C322        C323   1.400       .  A
C322        H327   1.062       .  S
C323       C1035   1.517       .  S
C323        C324   1.412       .  A
C324       Br325   1.906       .  S
C329        C330   1.399       .  A
C329        C334   1.394       .  A
C329        H336   1.084       .  S
C330        C331   1.416       .  A
C331        C332   1.399       .  A
C331       Br338   1.912       .  S
C332        C333   1.399       .  A
C332        H337   1.083       .  S
C333       C1465   1.479       .  S
C333        C334   1.409       .  A
C334       Br335   1.905       .  S
C339        C340   1.407       .  A
C339        C344   1.400       .  A
C339        H346   1.082       .  S
C340        C341   1.413       .  A
C341        C342   1.412       .  A
C341       Br348   1.913       .  S
C342        C343   1.409       .  A
C342        H347   1.084       .  S
C343        C344   1.407       .  A
C344       Br345   1.914       .  S
C349        C350   1.381       .  A
C349        C354   1.383       .  A
C349        H356   1.086       .  S
C350        C351   1.397       .  A
C351        C352   1.403       .  A
C351       Br358   1.918       .  S
C352        C353   1.422       .  A
C352        H357   1.070       .  S
C353        C609   1.549       .  S
C353        C354   1.443       .  A
C354       Br355   1.922       .  S
C359        C360   1.408       .  A
C359        C364   1.410       .  A
C359        H366   1.083       .  S
C360        C361   1.416       .  A
C361        C362   1.395       .  A
C361       Br368   1.904       .  S
C362        C363   1.398       .  A
C362        H367   1.084       .  S
C363        C611   1.504       .  S
C363        C364   1.409       .  A
C364       Br365   1.895       .  S
C369        C370   1.405       .  A
C369        C374   1.408       .  A
C369        H376   1.083       .  S
C370        C371   1.403       .  A
C371        C372   1.383       .  A
C371       Br378   1.905       .  S
C372        C373   1.397       .  A
C372        H377   1.084       .  S
C373        C613   1.486       .  S
C373        C374   1.416       .  A
C374       Br375   1.910       .  S
C379        C380   1.401       .  A
C379        C384   1.403       .  A
C379        H386   1.076       .  S
C380        C381   1.400       .  A
C381        C382   1.397       .  A
C381       Br388   1.923       .  S
C382        C383   1.419       .  A
C382        H387   1.070       .  S
C383       C1892   1.519       .  S
C383        C384   1.417       .  A
C384       Br385   1.916       .  S
C389        C390   1.402       .  A
C389        C394   1.395       .  A
C389        H396   1.075       .  S
C390       C2323   1.499       .  S
C390        C391   1.407       .  A
C391        C392   1.402       .  A
C391       Br826   1.913       .  S
C392        C393   1.407       .  A
C392        H397   1.080       .  S
C393        C394   1.408       .  A
C394       Br395   1.924       .  S
Br398       C819   1.913   1_554  S
C399        C400   1.396       .  A
C399        C404   1.391       .  A
C399        H406   1.084       .  S
C400        C401   1.414       .  A
C401        C402   1.403       .  A
C401       Br408   1.914       .  S
C402        C403   1.409       .  A
C402        H407   1.081       .  S
C403       C1469   1.521       .  S
C403        C404   1.433       .  A
C404       Br405   1.929       .  S
C409        C410   1.402       .  A
C409        C414   1.399       .  A
C409        H416   1.083       .  S
C410        C411   1.409       .  A
C411        C412   1.397       .  A
C411       Br418   1.914       .  S
C412        C413   1.404       .  A
C412        H417   1.084       .  S
C413       C2327   1.498       .  S
C413        C414   1.415       .  A
C414       Br415   1.906       .  S
C419        C420   1.420       .  A
C419        C424   1.416       .  A
C419        H426   1.068       .  S
C420       C2747   1.563       .  S
C420        C421   1.429       .  A
C421        C422   1.391       .  A
C421      Br2140   1.899       .  S
C422        C423   1.391       .  A
C422        H427   1.084       .  S
C423        C424   1.413       .  A
C424       Br425   1.919       .  S
Br428      C2133   1.899   1_455  S
O429       Cr447   1.999       .  S
O429        C437   1.261       .  A
O430       Cr447   1.978       .  S
O430        C431   1.256       .  A
C431        O432   1.266       .  A
C431        C828   1.488       .  S
O432       Cr448   1.999       .  S
O433       Cr448   1.995       .  S
O433        C434   1.259       .  A
C434        O435   1.267       .  A
C434        C851   1.498       .  S
O435       Cr449   2.008       .  S
O436       Cr449   1.978       .  S
O436        C437   1.259       .  A
C437        C838   1.481       .  S
O438       Cr447   1.975       .  S
O438        C446   1.261       .  A
O439       Cr447   2.005       .  S
O439        C440   1.265       .  A
C440        O441   1.261       .  A
C440        C512   1.465       .  S
O441       Cr448   1.979       .  S
O442       Cr448   2.008       .  S
O442        C443   1.268       .  A
C443        O444   1.261       .  A
C443        C553   1.463       .  S
O444       Cr449   1.972       .  S
O445       Cr449   2.017       .  S
O445        C446   1.269       .  A
C446        C462   1.469       .  S
Cr447       O450   1.781       .  S
Cr448       O450   1.777       .  S
Cr449       O450   1.770       .  S
O451       Cr469   2.002       .  S
O451        C459   1.258       .  A
O452       Cr469   1.982       .  S
O452        C453   1.257       .  A
C453        O454   1.263       .  A
C453        C821   1.482       .  S
O454       Cr470   1.993       .  S
O455       Cr470   1.981       .  S
O455        C456   1.258       .  A
C456        O457   1.264       .  A
C456        C808   1.481       .  S
O457       Cr471   2.013       .  S
O458       Cr471   1.973       .  S
O458        C459   1.257       .  A
C459        C798   1.474       .  S
O460       Cr469   1.976       .  S
O460        C468   1.262       .  A
O461       Cr469   2.009       .  S
O461        C462   1.266       .  A
C462        O463   1.260       .  A
O463       Cr470   1.979       .  S
O464       Cr470   2.003       .  S
O464        C465   1.265       .  A
C465        O466   1.264       .  A
C465        C597   1.472       .  S
O466       Cr471   1.985       .  S
O467       Cr471   2.022       .  S
O467        C468   1.272       .  A
C468        C484   1.473       .  S
Cr469       O472   1.790       .  S
Cr470       O472   1.778       .  S
Cr471       O472   1.777       .  S
O473       Cr491   2.027       .  S
O473        C481   1.268       .  A
O474       Cr491   1.972       .  S
O474        C475   1.253       .  A
C475        O476   1.261       .  A
C475        C778   1.462       .  S
O476       Cr492   1.989       .  S
O477       Cr492   1.992       .  S
O477        C478   1.260       .  A
C478        O479   1.271       .  A
C478        C771   1.495       .  S
O479       Cr493   2.025       .  S
O480       Cr493   1.979       .  S
O480        C481   1.259       .  A
C481        C788   1.499       .  S
O482       Cr491   1.962       .  S
O482        C490   1.256       .  A
O483       Cr491   2.022       .  S
O483        C484   1.272       .  A
C484        O485   1.264       .  A
O485       Cr492   1.980       .  S
O486       Cr492   2.018       .  S
O486        C487   1.268       .  A
C487        O488   1.262       .  A
C487        C575   1.483       .  S
O488       Cr493   1.992       .  S
O489       Cr493   2.022       .  S
O489        C490   1.271       .  A
C490        C506   1.467       .  S
Cr491       O494   1.784       .  S
Cr492       O494   1.775       .  S
Cr493       O494   1.772       .  S
O495       Cr513   1.997       .  S
O495        C503   1.261       .  A
O496       Cr513   1.984       .  S
O496        C497   1.255       .  A
C497        O498   1.266       .  A
C497        C738   1.486       .  S
O498       Cr514   1.995       .  S
O499       Cr514   1.988       .  S
O499        C500   1.257       .  A
C500        O501   1.259       .  A
C500        C748   1.492       .  S
O501       Cr515   1.998       .  S
O502       Cr515   1.980       .  S
O502        C503   1.258       .  A
C503        C758   1.467       .  S
O504       Cr513   1.979       .  S
O504        C512   1.263       .  A
O505       Cr513   2.010       .  S
O505        C506   1.269       .  A
C506        O507   1.261       .  A
O507       Cr514   1.974       .  S
O508       Cr514   2.026       .  S
O508        C509   1.273       .  A
C509        O510   1.264       .  A
C509        C531   1.478       .  S
O510       Cr515   1.982       .  S
O511       Cr515   2.006       .  S
O511        C512   1.266       .  A
Cr513       O516   1.778       .  S
Cr514       O516   1.770       .  S
Cr515       O516   1.771       .  S
O517       Cr535   2.002       .  S
O517        C525   1.260       .  A
O518       Cr535   1.969       .  S
O518        C519   1.256       .  A
C519        O520   1.262       .  A
C519        C718   1.463       .  S
O520       Cr536   1.993       .  S
O521       Cr536   1.986       .  S
O521        C522   1.256       .  A
C522        O523   1.260       .  A
C522        C728   1.482       .  S
O523       Cr537   1.981       .  S
O524       Cr537   1.985       .  S
O524        C525   1.257       .  A
C525        C708   1.487       .  S
O526       Cr535   1.982       .  S
O526        C534   1.261       .  A
O527       Cr535   2.001       .  S
O527        C528   1.264       .  A
C528        O529   1.263       .  A
C528        C556   1.467       .  S
O529       Cr536   1.983       .  S
O530       Cr536   2.014       .  S
O530        C531   1.269       .  A
C531        O532   1.266       .  A
O532       Cr537   1.988       .  S
O533       Cr537   2.015       .  S
O533        C534   1.271       .  A
C534        C572   1.475       .  S
Cr535       O538   1.780       .  S
Cr536       O538   1.779       .  S
Cr537       O538   1.769       .  S
O539       Cr557   2.011       .  S
O539        C547   1.265       .  A
O540       Cr557   1.983       .  S
O540        C541   1.256       .  A
C541        O542   1.267       .  A
C541        C678   1.494       .  S
O542       Cr558   2.006       .  S
O543       Cr558   1.989       .  S
O543        C544   1.261       .  A
C544        O545   1.258       .  A
C544        C698   1.497       .  S
O545       Cr559   2.005       .  S
O546       Cr559   1.972       .  S
O546        C547   1.259       .  A
C547        C688   1.488       .  S
O548       Cr557   1.983       .  S
O548        C556   1.262       .  A
O549       Cr557   2.026       .  S
O549        C550   1.271       .  A
C550        O551   1.263       .  A
C550        C600   1.487       .  S
O551       Cr558   1.989       .  S
O552       Cr558   2.013       .  S
O552        C553   1.271       .  A
C553        O554   1.261       .  A
O554       Cr559   1.969       .  S
O555       Cr559   2.002       .  S
O555        C556   1.264       .  A
Cr557       O560   1.781       .  S
Cr558       O560   1.773       .  S
Cr559       O560   1.782       .  S
O561       Cr579   1.997       .  S
O561        C569   1.259       .  A
O562       Cr579   1.991       .  S
O562        C563   1.257       .  A
C563        O564   1.254       .  A
C563        C651   1.459       .  S
O564       Cr580   1.958       .  S
O565       Cr580   1.999       .  S
O565        C566   1.262       .  A
C566        O567   1.262       .  A
C566        C668   1.484       .  S
O567       Cr581   1.996       .  S
O568       Cr581   1.999       .  S
O568        C569   1.263       .  A
C569        C661   1.494       .  S
O570       Cr579   2.004       .  S
O570        C578   1.266       .  A
O571       Cr579   1.999       .  S
O571        C572   1.266       .  A
C572        O573   1.263       .  A
O573       Cr580   1.991       .  S
O574       Cr580   1.992       .  S
O574        C575   1.263       .  A
C575        O576   1.268       .  A
O576       Cr581   2.016       .  S
O577       Cr581   2.001       .  S
O577        C578   1.267       .  A
C578        C594   1.481       .  S
Cr579       O582   1.786       .  S
Cr580       O582   1.776       .  S
Cr581       O582   1.774       .  S
O583       Cr601   2.003       .  S
O583        C591   1.261       .  A
O584       Cr601   1.979       .  S
O584        C585   1.257       .  A
C585        O586   1.260       .  A
C585        C618   1.483       .  S
O586       Cr602   1.996       .  S
O587       Cr602   1.993       .  S
O587        C588   1.257       .  A
C588        O589   1.269       .  A
C588        C641   1.488       .  S
O589       Cr603   2.024       .  S
O590       Cr603   1.983       .  S
O590        C591   1.259       .  A
C591        C628   1.486       .  S
O592       Cr601   1.986       .  S
O592        C600   1.266       .  A
O593       Cr601   2.021       .  S
O593        C594   1.272       .  A
C594        O595   1.263       .  A
O595       Cr602   1.987       .  S
O596       Cr602   2.011       .  S
O596        C597   1.267       .  A
C597        O598   1.263       .  A
O598       Cr603   1.981       .  S
O599       Cr603   2.033       .  S
O599        C600   1.275       .  A
Cr601       O604   1.777       .  S
Cr602       O604   1.780       .  S
Cr603       O604   1.771       .  S
C605        C606   1.393       .  D
C605       C3269   1.527   1_445  S
C605       C1587   1.496   1_545  S
C606       C2350   1.510   1_455  S
C606        C671   1.544       .  S
C607        C608   1.404       .  D
C607       C1607   1.517   1_545  S
C607       C3416   1.563   1_445  S
C608        C768   1.520       .  S
C608       C2523   1.519   1_455  S
C609        C610   1.401       .  D
C609       C1189   1.479   1_545  S
C610        C658   1.496       .  S
C610       C1577   1.541   1_545  S
C611        C612   1.380       .  D
C611       C2102   1.499   1_455  S
C612       C2343   1.505   1_455  S
C612        C648   1.502       .  S
C613        C614   1.388       .  D
C613       C1259   1.521   1_545  S
C614        C621   1.511       .  S
C614       C1547   1.508   1_545  S
C615        C616   1.380       .  D
C615       C2125   1.498   1_455  S
C616       C2393   1.516   1_455  S
C616        C711   1.501       .  S
C617        C618   1.405       .  A
C617        C622   1.399       .  A
C617        H624   1.083       .  S
C618        C619   1.409       .  A
C619        C620   1.392       .  A
C619       Br626   1.926       .  S
C620        C621   1.411       .  A
C620        H625   1.083       .  S
C621        C622   1.415       .  A
C622       Br623   1.911       .  S
C627        C628   1.405       .  A
C627        C632   1.397       .  A
C627        H634   1.084       .  S
C628        C629   1.414       .  A
C629        C630   1.401       .  A
C629       Br636   1.921       .  S
C630        C631   1.403       .  A
C630        H635   1.074       .  S
C631       C2324   1.505       .  S
C631        C632   1.413       .  A
C632      Br2345   1.919       .  S
Br633      C2344   1.919   1_455  S
C637        C638   1.407       .  A
C637        C642   1.405       .  A
C637        H644   1.084       .  S
C638       C2318   1.510       .  S
C638        C639   1.415       .  A
C639        C640   1.408       .  A
C639       Br646   1.916       .  S
C640        C641   1.404       .  A
C640        H645   1.084       .  S
C641        C642   1.402       .  A
C642       Br643   1.909       .  S
C647        C648   1.411       .  A
C647        C652   1.390       .  A
C647        H654   1.077       .  S
C648        C649   1.413       .  A
C649        C650   1.402       .  A
C649       Br656   1.914       .  S
C650        C651   1.402       .  A
C650        H655   1.081       .  S
C651        C652   1.395       .  A
C652       Br653   1.924       .  S
C657        C658   1.400       .  A
C657        C662   1.396       .  A
C657        H664   1.084       .  S
C658        C659   1.415       .  A
C659        C660   1.408       .  A
C659       Br666   1.919       .  S
C660        C661   1.409       .  A
C660        H665   1.080       .  S
C661        C662   1.412       .  A
C662       Br663   1.905       .  S
C667        C668   1.390       .  A
C667        C672   1.401       .  A
C667        H674   1.085       .  S
C668        C669   1.408       .  A
C669        C670   1.402       .  A
C669       Br676   1.912       .  S
C670        C671   1.417       .  A
C670        H675   1.078       .  S
C671        C672   1.428       .  A
C672       Br673   1.883       .  S
C677        C678   1.396       .  A
C677        C682   1.392       .  A
C677        H684   1.084       .  S
C678        C679   1.419       .  A
C679        C680   1.409       .  A
C679       Br686   1.911       .  S
C680        C681   1.407       .  A
C680        H685   1.082       .  S
C681       C2328   1.516       .  S
C681        C682   1.415       .  A
C682      Br2395   1.896       .  S
Br683      C2394   1.896   1_455  S
C687        C688   1.403       .  A
C687        C692   1.394       .  A
C687        H694   1.084       .  S
C688        C689   1.413       .  A
C689        C690   1.402       .  A
C689       Br696   1.910       .  S
C690        C691   1.404       .  A
C690        H695   1.076       .  S
C691       C1470   1.508       .  S
C691        C692   1.415       .  A
C692      Br1549   1.917       .  S
Br693      C1548   1.917   1_545  S
C697        C698   1.397       .  A
C697        C702   1.394       .  A
C697        H704   1.084       .  S
C698        C699   1.418       .  A
C699        C700   1.411       .  A
C699       Br706   1.916       .  S
C700        C701   1.411       .  A
C700        H705   1.077       .  S
C701       C3173   1.527       .  S
C701        C702   1.422       .  A
C702      Br2415   1.904       .  S
Br703      C2414   1.904   1_455  S
C707        C708   1.411       .  A
C707        C712   1.402       .  A
C707        H714   1.083       .  S
C708        C709   1.415       .  A
C709        C710   1.397       .  A
C709       Br716   1.922       .  S
C710        C711   1.400       .  A
C710        H715   1.068       .  S
C711        C712   1.401       .  A
C712       Br713   1.914       .  S
C717        C718   1.394       .  A
C717        C722   1.401       .  A
C717        H724   1.079       .  S
C718        C719   1.388       .  A
C719        C720   1.389       .  A
C719       Br726   1.918       .  S
C720        C721   1.416       .  A
C720        H725   1.054       .  S
C721       C1466   1.541       .  S
C721        C722   1.429       .  A
C722      Br1579   1.916       .  S
Br723      C1578   1.916   1_545  S
C727        C728   1.406       .  A
C727        C732   1.403       .  A
C727        H734   1.078       .  S
C728        C729   1.408       .  A
C729        C730   1.397       .  A
C729       Br736   1.923       .  S
C730        C731   1.409       .  A
C730        H735   1.081       .  S
C731       C1461   1.496       .  S
C731        C732   1.414       .  A
C732      Br1589   1.919       .  S
Br733      C1588   1.919   1_545  S
C737        C738   1.393       .  A
C737        C742   1.384       .  A
C737        H744   1.084       .  S
C738        C739   1.415       .  A
C739        C740   1.408       .  A
C739       Br746   1.917       .  S
C740        C741   1.412       .  A
C740        H745   1.081   1_556  S
C741        C742   1.417       .  A
C742       Br743   1.893       .  S
C747        C748   1.408       .  A
C747        C752   1.403       .  A
C747        H754   1.083       .  S
C748        C749   1.413       .  A
C749        C750   1.401       .  A
C749       Br756   1.924       .  S
C750        C751   1.400       .  A
C750        H755   1.062       .  S
C751       C1463   1.517       .  S
C751        C752   1.412       .  A
C752       Br753   1.906       .  S
C757        C758   1.399       .  A
C757        C762   1.394       .  A
C757        H764   1.084       .  S
C758        C759   1.416       .  A
C759        C760   1.399       .  A
C759       Br766   1.912       .  S
C760        C761   1.399       .  A
C760        H765   1.083       .  S
C761       C1037   1.479   1_556  S
C761        C762   1.409       .  A
C762       Br763   1.905   1_556  S
C767        C768   1.407       .  A
C767        C772   1.400       .  A
C767        H774   1.082       .  S
C768        C769   1.413       .  A
C769        C770   1.412       .  A
C769       Br776   1.913       .  S
C770        C771   1.409       .  A
C770        H775   1.084       .  S
C771        C772   1.407       .  A
C772       Br773   1.914       .  S
C777        C778   1.381       .  A
C777        C782   1.383       .  A
C777        H784   1.086       .  S
C778        C779   1.397       .  A
C779        C780   1.403       .  A
C779       Br786   1.918   1_556  S
C780        C781   1.422       .  A
C780        H785   1.070   1_556  S
C781        C782   1.443       .  A
C782       Br783   1.922       .  S
C787        C788   1.408       .  A
C787        C792   1.410       .  A
C787        H794   1.083       .  S
C788        C789   1.416       .  A
C789        C790   1.395       .  A
C789       Br796   1.904       .  S
C790        C791   1.398       .  A
C790        H795   1.084       .  S
C791        C792   1.409       .  A
C792       Br793   1.895   1_556  S
C797        C798   1.405       .  A
C797        C802   1.408       .  A
C797        H804   1.083       .  S
C798        C799   1.403       .  A
C799        C800   1.383       .  A
C799       Br806   1.905       .  S
C800        C801   1.397       .  A
C800        H805   1.084       .  S
C801        C802   1.416       .  A
C802       Br803   1.910   1_556  S
C807        C808   1.401       .  A
C807        C812   1.403       .  A
C807        H814   1.076       .  S
C808        C809   1.400       .  A
C809        C810   1.397       .  A
C809       Br816   1.923       .  S
C810        C811   1.419       .  A
C810        H815   1.070       .  S
C811       C2320   1.519       .  S
C811        C812   1.417       .  A
C812       Br813   1.916       .  S
C817        C818   1.402       .  A
C817        C822   1.395       .  A
C817        H824   1.075       .  S
C818       C1895   1.499   1_556  S
C818        C819   1.407       .  A
C819        C820   1.402       .  A
C820        C821   1.407       .  A
C820        H825   1.080       .  S
C821        C822   1.408       .  A
C822       Br823   1.924       .  S
C827        C828   1.396       .  A
C827        C832   1.391       .  A
C827        H834   1.084       .  S
C828        C829   1.414       .  A
C829        C830   1.403       .  A
C829       Br836   1.914       .  S
C830        C831   1.409       .  A
C830        H835   1.081   1_556  S
C831       C1041   1.521   1_556  S
C831        C832   1.433       .  A
C832       Br833   1.929       .  S
C837        C838   1.402       .  A
C837        C842   1.399       .  A
C837        H844   1.083       .  S
C838        C839   1.409       .  A
C839        C840   1.397       .  A
C839       Br846   1.914       .  S
C840        C841   1.404       .  A
C840        H845   1.084       .  S
C841       C1899   1.498   1_556  S
C841        C842   1.415       .  A
C842       Br843   1.906   1_556  S
C847        C848   1.420       .  A
C847        C852   1.416       .  A
C847        H854   1.068       .  S
C848       C3175   1.563       .  S
C848        C849   1.429       .  A
C849        C850   1.391       .  A
C849      Br2568   1.899       .  S
C850        C851   1.391       .  A
C850        H855   1.084       .  S
C851        C852   1.413       .  A
C852       Br853   1.919       .  S
Br856      C2561   1.899   1_455  S
O857       Cr875   1.999       .  S
O857        C865   1.261       .  A
O858       Cr875   1.978       .  S
O858        C859   1.256       .  A
C859        O860   1.266       .  A
C859       C1256   1.488       .  S
O860       Cr876   1.999       .  S
O861       Cr876   1.995       .  S
O861        C862   1.259       .  A
C862        O863   1.267       .  A
C862       C1279   1.498       .  S
O863       Cr877   2.008       .  S
O864       Cr877   1.978       .  S
O864        C865   1.259       .  A
C865       C1266   1.481       .  S
O866       Cr875   1.975       .  S
O866        C874   1.261       .  A
O867       Cr875   2.005       .  S
O867        C868   1.265       .  A
C868        O869   1.261       .  A
C868        C940   1.465       .  S
O869       Cr876   1.979       .  S
O870       Cr876   2.008       .  S
O870        C871   1.268       .  A
C871        O872   1.261       .  A
C871        C981   1.463       .  S
O872       Cr877   1.972       .  S
O873       Cr877   2.017       .  S
O873        C874   1.269       .  A
C874        C890   1.469       .  S
Cr875       O878   1.781       .  S
Cr876       O878   1.777       .  S
Cr877       O878   1.770       .  S
O879       Cr897   2.002       .  S
O879        C887   1.258       .  A
O880       Cr897   1.982       .  S
O880        C881   1.257       .  A
C881        O882   1.263       .  A
C881       C1249   1.482       .  S
O882       Cr898   1.993       .  S
O883       Cr898   1.981       .  S
O883        C884   1.258       .  A
C884        O885   1.264       .  A
C884       C1236   1.481       .  S
O885       Cr899   2.013       .  S
O886       Cr899   1.973       .  S
O886        C887   1.257       .  A
C887       C1226   1.474       .  S
O888       Cr897   1.976       .  S
O888        C896   1.262       .  A
O889       Cr897   2.009       .  S
O889        C890   1.266       .  A
C890        O891   1.260       .  A
O891       Cr898   1.979       .  S
O892       Cr898   2.003       .  S
O892        C893   1.265       .  A
C893        O894   1.264       .  A
C893       C1025   1.472       .  S
O894       Cr899   1.985       .  S
O895       Cr899   2.022       .  S
O895        C896   1.272       .  A
C896        C912   1.473       .  S
Cr897       O900   1.790       .  S
Cr898       O900   1.778       .  S
Cr899       O900   1.777       .  S
O901       Cr919   2.027       .  S
O901        C909   1.268       .  A
O902       Cr919   1.972       .  S
O902        C903   1.253       .  A
C903        O904   1.261       .  A
C903       C1206   1.462       .  S
O904       Cr920   1.989       .  S
O905       Cr920   1.992       .  S
O905        C906   1.260       .  A
C906        O907   1.271       .  A
C906       C1199   1.495       .  S
O907       Cr921   2.025       .  S
O908       Cr921   1.979       .  S
O908        C909   1.259       .  A
C909       C1216   1.499       .  S
O910       Cr919   1.962       .  S
O910        C918   1.256       .  A
O911       Cr919   2.022       .  S
O911        C912   1.272       .  A
C912        O913   1.264       .  A
O913       Cr920   1.980       .  S
O914       Cr920   2.018       .  S
O914        C915   1.268       .  A
C915        O916   1.262       .  A
C915       C1003   1.483       .  S
O916       Cr921   1.992       .  S
O917       Cr921   2.022       .  S
O917        C918   1.271       .  A
C918        C934   1.467       .  S
Cr919       O922   1.784       .  S
Cr920       O922   1.775       .  S
Cr921       O922   1.772       .  S
O923       Cr941   1.997       .  S
O923        C931   1.261       .  A
O924       Cr941   1.984       .  S
O924        C925   1.255       .  A
C925        O926   1.266       .  A
C925       C1166   1.486       .  S
O926       Cr942   1.995       .  S
O927       Cr942   1.988       .  S
O927        C928   1.257       .  A
C928        O929   1.259       .  A
C928       C1176   1.492       .  S
O929       Cr943   1.998       .  S
O930       Cr943   1.980       .  S
O930        C931   1.258       .  A
C931       C1186   1.467       .  S
O932       Cr941   1.979       .  S
O932        C940   1.263       .  A
O933       Cr941   2.010       .  S
O933        C934   1.269       .  A
C934        O935   1.261       .  A
O935       Cr942   1.974       .  S
O936       Cr942   2.026       .  S
O936        C937   1.273       .  A
C937        O938   1.264       .  A
C937        C959   1.478       .  S
O938       Cr943   1.982       .  S
O939       Cr943   2.006       .  S
O939        C940   1.266       .  A
Cr941       O944   1.778       .  S
Cr942       O944   1.770       .  S
Cr943       O944   1.771       .  S
O945       Cr963   2.002       .  S
O945        C953   1.260       .  A
O946       Cr963   1.969       .  S
O946        C947   1.256       .  A
C947        O948   1.262       .  A
C947       C1146   1.463       .  S
O948       Cr964   1.993       .  S
O949       Cr964   1.986       .  S
O949        C950   1.256       .  A
C950        O951   1.260       .  A
C950       C1156   1.482       .  S
O951       Cr965   1.981       .  S
O952       Cr965   1.985       .  S
O952        C953   1.257       .  A
C953       C1136   1.487       .  S
O954       Cr963   1.982       .  S
O954        C962   1.261       .  A
O955       Cr963   2.001       .  S
O955        C956   1.264       .  A
C956        O957   1.263       .  A
C956        C984   1.467       .  S
O957       Cr964   1.983       .  S
O958       Cr964   2.014       .  S
O958        C959   1.269       .  A
C959        O960   1.266       .  A
O960       Cr965   1.988       .  S
O961       Cr965   2.015       .  S
O961        C962   1.271       .  A
C962       C1000   1.475       .  S
Cr963       O966   1.780       .  S
Cr964       O966   1.779       .  S
Cr965       O966   1.769       .  S
O967       Cr985   2.011       .  S
O967        C975   1.265       .  A
O968       Cr985   1.983       .  S
O968        C969   1.256       .  A
C969        O970   1.267       .  A
C969       C1106   1.494       .  S
O970       Cr986   2.006       .  S
O971       Cr986   1.989       .  S
O971        C972   1.261       .  A
C972        O973   1.258       .  A
C972       C1126   1.497       .  S
O973       Cr987   2.005       .  S
O974       Cr987   1.972       .  S
O974        C975   1.259       .  A
C975       C1116   1.488       .  S
O976       Cr985   1.983       .  S
O976        C984   1.262       .  A
O977       Cr985   2.026       .  S
O977        C978   1.271       .  A
C978        O979   1.263       .  A
C978       C1028   1.487       .  S
O979       Cr986   1.989       .  S
O980       Cr986   2.013       .  S
O980        C981   1.271       .  A
C981        O982   1.261       .  A
O982       Cr987   1.969       .  S
O983       Cr987   2.002       .  S
O983        C984   1.264       .  A
Cr985       O988   1.781       .  S
Cr986       O988   1.773       .  S
Cr987       O988   1.782       .  S
O989      Cr1007   1.997       .  S
O989        C997   1.259       .  A
O990      Cr1007   1.991       .  S
O990        C991   1.257       .  A
C991        O992   1.254       .  A
C991       C1079   1.459       .  S
O992      Cr1008   1.958       .  S
O993      Cr1008   1.999       .  S
O993        C994   1.262       .  A
C994        O995   1.262       .  A
C994       C1096   1.484       .  S
O995      Cr1009   1.996       .  S
O996      Cr1009   1.999       .  S
O996        C997   1.263       .  A
C997       C1089   1.494       .  S
O998      Cr1007   2.004       .  S
O998       C1006   1.266       .  A
O999      Cr1007   1.999       .  S
O999       C1000   1.266       .  A
C1000      O1001   1.263       .  A
O1001     Cr1008   1.991       .  S
O1002     Cr1008   1.992       .  S
O1002      C1003   1.263       .  A
C1003      O1004   1.268       .  A
O1004     Cr1009   2.016       .  S
O1005     Cr1009   2.001       .  S
O1005      C1006   1.267       .  A
C1006      C1022   1.481       .  S
Cr1007     O1010   1.786       .  S
Cr1008     O1010   1.776       .  S
Cr1009     O1010   1.774       .  S
O1011     Cr1029   2.003       .  S
O1011      C1019   1.261       .  A
O1012     Cr1029   1.979       .  S
O1012      C1013   1.257       .  A
C1013      O1014   1.260       .  A
C1013      C1046   1.483       .  S
O1014     Cr1030   1.996       .  S
O1015     Cr1030   1.993       .  S
O1015      C1016   1.257       .  A
C1016      O1017   1.269       .  A
C1016      C1069   1.488       .  S
O1017     Cr1031   2.024       .  S
O1018     Cr1031   1.983       .  S
O1018      C1019   1.259       .  A
C1019      C1056   1.486       .  S
O1020     Cr1029   1.986       .  S
O1020      C1028   1.266       .  A
O1021     Cr1029   2.021       .  S
O1021      C1022   1.272       .  A
C1022      O1023   1.263       .  A
O1023     Cr1030   1.987       .  S
O1024     Cr1030   2.011       .  S
O1024      C1025   1.267       .  A
C1025      O1026   1.263       .  A
O1026     Cr1031   1.981       .  S
O1027     Cr1031   2.033       .  S
O1027      C1028   1.275       .  A
Cr1029     O1032   1.777       .  S
Cr1030     O1032   1.780       .  S
Cr1031     O1032   1.771       .  S
C1033      C1034   1.393       .  D
C1033      C1985   1.527   1_455  S
C1034      C2778   1.510   1_455  S
C1034      C1099   1.544       .  S
C1035      C1036   1.404       .  D
C1035      C2132   1.563   1_455  S
C1036      C1196   1.520       .  S
C1036      C2951   1.519   1_455  S
C1037      C1038   1.401       .  D
C1037      C1637   1.549   1_554  S
C1038      C1086   1.496       .  S
C1039      C1040   1.380       .  D
C1039      C1647   1.504   1_554  S
C1039      C3386   1.499   1_454  S
C1040      C2771   1.505   1_455  S
C1040      C1076   1.502       .  S
C1041      C1042   1.388       .  D
C1041      C1657   1.486   1_554  S
C1042      C1049   1.511       .  S
C1043      C1044   1.380       .  D
C1043      C1597   1.517   1_554  S
C1043      C3409   1.498   1_454  S
C1044      C2821   1.516   1_455  S
C1044      C1139   1.501       .  S
C1045      C1046   1.405       .  A
C1045      C1050   1.399       .  A
C1045      H1052   1.083       .  S
C1046      C1047   1.409       .  A
C1047      C1048   1.392       .  A
C1047     Br1054   1.926       .  S
C1048      C1049   1.411       .  A
C1048      H1053   1.083       .  S
C1049      C1050   1.415       .  A
C1050     Br1051   1.911       .  S
C1055      C1056   1.405       .  A
C1055      C1060   1.397       .  A
C1055      H1062   1.084       .  S
C1056      C1057   1.414       .  A
C1057      C1058   1.401       .  A
C1057     Br1064   1.921       .  S
C1058      C1059   1.403       .  A
C1058      H1063   1.074       .  S
C1059      C2752   1.505       .  S
C1059      C1060   1.413       .  A
C1060     Br2773   1.919       .  S
Br1061     C2772   1.919   1_455  S
C1065      C1066   1.407       .  A
C1065      C1070   1.405       .  A
C1065      H1072   1.084       .  S
C1066      C2746   1.510       .  S
C1066      C1067   1.415       .  A
C1067      C1068   1.408       .  A
C1067     Br1074   1.916       .  S
C1068      C1069   1.404       .  A
C1068      H1073   1.084       .  S
C1069      C1070   1.402       .  A
C1070     Br1071   1.909       .  S
C1075      C1076   1.411       .  A
C1075      C1080   1.390       .  A
C1075      H1082   1.077       .  S
C1076      C1077   1.413       .  A
C1077      C1078   1.402       .  A
C1077     Br1084   1.914       .  S
C1078      C1079   1.402       .  A
C1078      H1083   1.081       .  S
C1079      C1080   1.395       .  A
C1080     Br1081   1.924       .  S
C1085      C1086   1.400       .  A
C1085      C1090   1.396       .  A
C1085      H1092   1.084       .  S
C1086      C1087   1.415       .  A
C1087      C1088   1.408       .  A
C1087     Br1094   1.919       .  S
C1088      C1089   1.409       .  A
C1088      H1093   1.080       .  S
C1089      C1090   1.412       .  A
C1090     Br1091   1.905       .  S
C1095      C1096   1.390       .  A
C1095      C1100   1.401       .  A
C1095      H1102   1.085       .  S
C1096      C1097   1.408       .  A
C1097      C1098   1.402       .  A
C1097     Br1104   1.912       .  S
C1098      C1099   1.417       .  A
C1098      H1103   1.078       .  S
C1099      C1100   1.428       .  A
C1100     Br1101   1.883       .  S
C1105      C1106   1.396       .  A
C1105      C1110   1.392       .  A
C1105      H1112   1.084       .  S
C1106      C1107   1.419       .  A
C1107      C1108   1.409       .  A
C1107     Br1114   1.911       .  S
C1108      C1109   1.407       .  A
C1108      H1113   1.082       .  S
C1109      C2756   1.516       .  S
C1109      C1110   1.415       .  A
C1110     Br2823   1.896       .  S
Br1111     C2822   1.896   1_455  S
C1115      C1116   1.403       .  A
C1115      C1120   1.394       .  A
C1115      H1122   1.084       .  S
C1116      C1117   1.413       .  A
C1117      C1118   1.402       .  A
C1117     Br1124   1.910       .  S
C1118      C1119   1.404       .  A
C1118      H1123   1.076       .  S
C1119      C1120   1.415       .  A
C1125      C1126   1.397       .  A
C1125      C1130   1.394       .  A
C1125      H1132   1.084       .  S
C1126      C1127   1.418       .  A
C1127      C1128   1.411       .  A
C1127     Br1134   1.916       .  S
C1128      C1129   1.411       .  A
C1128      H1133   1.077   1_565  S
C1129      C1889   1.527   1_565  S
C1129      C1130   1.422       .  A
C1130     Br2843   1.904       .  S
Br1131     C2842   1.904   1_455  S
C1135      C1136   1.411       .  A
C1135      C1140   1.402       .  A
C1135      H1142   1.083       .  S
C1136      C1137   1.415       .  A
C1137      C1138   1.397       .  A
C1137     Br1144   1.922       .  S
C1138      C1139   1.400       .  A
C1138      H1143   1.068       .  S
C1139      C1140   1.401       .  A
C1140     Br1141   1.914       .  S
C1145      C1146   1.394       .  A
C1145      C1150   1.401       .  A
C1145      H1152   1.079       .  S
C1146      C1147   1.388       .  A
C1147      C1148   1.389       .  A
C1147     Br1154   1.918       .  S
C1148      C1149   1.416       .  A
C1148      H1153   1.054       .  S
C1149      C1150   1.429       .  A
C1155      C1156   1.406       .  A
C1155      C1160   1.403       .  A
C1155      H1162   1.078       .  S
C1156      C1157   1.408       .  A
C1157      C1158   1.397       .  A
C1157     Br1164   1.923       .  S
C1158      C1159   1.409       .  A
C1158      H1163   1.081       .  S
C1159      C1160   1.414       .  A
C1165      C1166   1.393       .  A
C1165      C1170   1.384       .  A
C1165      H1172   1.084       .  S
C1166      C1167   1.415       .  A
C1167      C1168   1.408       .  A
C1167     Br1174   1.917       .  S
C1168      C1169   1.412       .  A
C1168      H1173   1.081       .  S
C1169      C1471   1.517       .  S
C1169      C1170   1.417       .  A
C1170     Br1171   1.893       .  S
C1175      C1176   1.408       .  A
C1175      C1180   1.403       .  A
C1175      H1182   1.083       .  S
C1176      C1177   1.413       .  A
C1177      C1178   1.401       .  A
C1177     Br1184   1.924       .  S
C1178      C1179   1.400       .  A
C1178      H1183   1.062   1_565  S
C1179      C1180   1.412       .  A
C1180     Br1181   1.906       .  S
C1185      C1186   1.399       .  A
C1185      C1190   1.394       .  A
C1185      H1192   1.084       .  S
C1186      C1187   1.416       .  A
C1187      C1188   1.399       .  A
C1187     Br1194   1.912       .  S
C1188      C1189   1.399       .  A
C1188      H1193   1.083       .  S
C1189      C1190   1.409       .  A
C1190     Br1191   1.905       .  S
C1195      C1196   1.407       .  A
C1195      C1200   1.400       .  A
C1195      H1202   1.082       .  S
C1196      C1197   1.413       .  A
C1197      C1198   1.412       .  A
C1197     Br1204   1.913       .  S
C1198      C1199   1.409       .  A
C1198      H1203   1.084       .  S
C1199      C1200   1.407       .  A
C1200     Br1201   1.914       .  S
C1205      C1206   1.381       .  A
C1205      C1210   1.383       .  A
C1205      H1212   1.086       .  S
C1206      C1207   1.397       .  A
C1207      C1208   1.403       .  A
C1207     Br1214   1.918       .  S
C1208      C1209   1.422       .  A
C1208      H1213   1.070       .  S
C1209      C1465   1.549       .  S
C1209      C1210   1.443       .  A
C1210     Br1211   1.922       .  S
C1215      C1216   1.408       .  A
C1215      C1220   1.410       .  A
C1215      H1222   1.083       .  S
C1216      C1217   1.416       .  A
C1217      C1218   1.395       .  A
C1217     Br1224   1.904       .  S
C1218      C1219   1.398       .  A
C1218      H1223   1.084       .  S
C1219      C1467   1.504       .  S
C1219      C1220   1.409       .  A
C1220     Br1221   1.895       .  S
C1225      C1226   1.405       .  A
C1225      C1230   1.408       .  A
C1225      H1232   1.083       .  S
C1226      C1227   1.403       .  A
C1227      C1228   1.383       .  A
C1227     Br1234   1.905       .  S
C1228      C1229   1.397       .  A
C1228      H1233   1.084       .  S
C1229      C1469   1.486       .  S
C1229      C1230   1.416       .  A
C1230     Br1231   1.910       .  S
C1235      C1236   1.401       .  A
C1235      C1240   1.403       .  A
C1235      H1242   1.076       .  S
C1236      C1237   1.400       .  A
C1237      C1238   1.397       .  A
C1237     Br1244   1.923       .  S
C1238      C1239   1.419       .  A
C1238      H1243   1.070       .  S
C1239      C2748   1.519       .  S
C1239      C1240   1.417       .  A
C1240     Br1241   1.916       .  S
C1245      C1246   1.402       .  A
C1245      C1250   1.395       .  A
C1245      H1252   1.075       .  S
C1246      C3179   1.499       .  S
C1246      C1247   1.407       .  A
C1247      C1248   1.402       .  A
C1247     Br1682   1.913       .  S
C1248      C1249   1.407       .  A
C1248      H1253   1.080       .  S
C1249      C1250   1.408       .  A
C1250     Br1251   1.924       .  S
Br1254     C1675   1.913   1_554  S
C1255      C1256   1.396       .  A
C1255      C1260   1.391       .  A
C1255      H1262   1.084       .  S
C1256      C1257   1.414       .  A
C1257      C1258   1.403       .  A
C1257     Br1264   1.914       .  S
C1258      C1259   1.409       .  A
C1258      H1263   1.081       .  S
C1259      C1260   1.433       .  A
C1260     Br1261   1.929   1_565  S
C1265      C1266   1.402       .  A
C1265      C1270   1.399       .  A
C1265      H1272   1.083       .  S
C1266      C1267   1.409       .  A
C1267      C1268   1.397       .  A
C1267     Br1274   1.914       .  S
C1268      C1269   1.404       .  A
C1268      H1273   1.084       .  S
C1269      C3183   1.498       .  S
C1269      C1270   1.415       .  A
C1270     Br1271   1.906       .  S
C1275      C1276   1.420       .  A
C1275      C1280   1.416       .  A
C1275      H1282   1.068   1_565  S
C1276      C1891   1.563   1_565  S
C1276      C1277   1.429       .  A
C1277      C1278   1.391       .  A
C1277     Br2996   1.899       .  S
C1278      C1279   1.391       .  A
C1278      H1283   1.084       .  S
C1279      C1280   1.413       .  A
C1280     Br1281   1.919       .  S
Br1284     C2989   1.899   1_455  S
O1285     Cr1303   1.999       .  S
O1285      C1293   1.261       .  A
O1286     Cr1303   1.978       .  S
O1286      C1287   1.256       .  A
C1287      O1288   1.266       .  A
C1287      C1684   1.488       .  S
O1288     Cr1304   1.999       .  S
O1289     Cr1304   1.995       .  S
O1289      C1290   1.259       .  A
C1290      O1291   1.267       .  A
C1290      C1707   1.498       .  S
O1291     Cr1305   2.008       .  S
O1292     Cr1305   1.978       .  S
O1292      C1293   1.259       .  A
C1293      C1694   1.481       .  S
O1294     Cr1303   1.975       .  S
O1294      C1302   1.261       .  A
O1295     Cr1303   2.005       .  S
O1295      C1296   1.265       .  A
C1296      O1297   1.261       .  A
C1296      C1368   1.465       .  S
O1297     Cr1304   1.979       .  S
O1298     Cr1304   2.008       .  S
O1298      C1299   1.268       .  A
C1299      O1300   1.261       .  A
C1299      C1409   1.463       .  S
O1300     Cr1305   1.972       .  S
O1301     Cr1305   2.017       .  S
O1301      C1302   1.269       .  A
C1302      C1318   1.469       .  S
Cr1303     O1306   1.781       .  S
Cr1304     O1306   1.777       .  S
Cr1305     O1306   1.770       .  S
O1307     Cr1325   2.002       .  S
O1307      C1315   1.258       .  A
O1308     Cr1325   1.982       .  S
O1308      C1309   1.257       .  A
C1309      O1310   1.263       .  A
C1309      C1677   1.482       .  S
O1310     Cr1326   1.993       .  S
O1311     Cr1326   1.981       .  S
O1311      C1312   1.258       .  A
C1312      O1313   1.264       .  A
C1312      C1664   1.481       .  S
O1313     Cr1327   2.013       .  S
O1314     Cr1327   1.973       .  S
O1314      C1315   1.257       .  A
C1315      C1654   1.474       .  S
O1316     Cr1325   1.976       .  S
O1316      C1324   1.262       .  A
O1317     Cr1325   2.009       .  S
O1317      C1318   1.266       .  A
C1318      O1319   1.260       .  A
O1319     Cr1326   1.979       .  S
O1320     Cr1326   2.003       .  S
O1320      C1321   1.265       .  A
C1321      O1322   1.264       .  A
C1321      C1453   1.472       .  S
O1322     Cr1327   1.985       .  S
O1323     Cr1327   2.022       .  S
O1323      C1324   1.272       .  A
C1324      C1340   1.473       .  S
Cr1325     O1328   1.790       .  S
Cr1326     O1328   1.778       .  S
Cr1327     O1328   1.777       .  S
O1329     Cr1347   2.027       .  S
O1329      C1337   1.268       .  A
O1330     Cr1347   1.972       .  S
O1330      C1331   1.253       .  A
C1331      O1332   1.261       .  A
C1331      C1634   1.462       .  S
O1332     Cr1348   1.989       .  S
O1333     Cr1348   1.992       .  S
O1333      C1334   1.260       .  A
C1334      O1335   1.271       .  A
C1334      C1627   1.495       .  S
O1335     Cr1349   2.025       .  S
O1336     Cr1349   1.979       .  S
O1336      C1337   1.259       .  A
C1337      C1644   1.499       .  S
O1338     Cr1347   1.962       .  S
O1338      C1346   1.256       .  A
O1339     Cr1347   2.022       .  S
O1339      C1340   1.272       .  A
C1340      O1341   1.264       .  A
O1341     Cr1348   1.980       .  S
O1342     Cr1348   2.018       .  S
O1342      C1343   1.268       .  A
C1343      O1344   1.262       .  A
C1343      C1431   1.483       .  S
O1344     Cr1349   1.992       .  S
O1345     Cr1349   2.022       .  S
O1345      C1346   1.271       .  A
C1346      C1362   1.467       .  S
Cr1347     O1350   1.784       .  S
Cr1348     O1350   1.775       .  S
Cr1349     O1350   1.772       .  S
O1351     Cr1369   1.997       .  S
O1351      C1359   1.261       .  A
O1352     Cr1369   1.984       .  S
O1352      C1353   1.255       .  A
C1353      O1354   1.266       .  A
C1353      C1594   1.486       .  S
O1354     Cr1370   1.995       .  S
O1355     Cr1370   1.988       .  S
O1355      C1356   1.257       .  A
C1356      O1357   1.259       .  A
C1356      C1604   1.492       .  S
O1357     Cr1371   1.998       .  S
O1358     Cr1371   1.980       .  S
O1358      C1359   1.258       .  A
C1359      C1614   1.467       .  S
O1360     Cr1369   1.979       .  S
O1360      C1368   1.263       .  A
O1361     Cr1369   2.010       .  S
O1361      C1362   1.269       .  A
C1362      O1363   1.261       .  A
O1363     Cr1370   1.974       .  S
O1364     Cr1370   2.026       .  S
O1364      C1365   1.273       .  A
C1365      O1366   1.264       .  A
C1365      C1387   1.478       .  S
O1366     Cr1371   1.982       .  S
O1367     Cr1371   2.006       .  S
O1367      C1368   1.266       .  A
Cr1369     O1372   1.778       .  S
Cr1370     O1372   1.770       .  S
Cr1371     O1372   1.771       .  S
O1373     Cr1391   2.002       .  S
O1373      C1381   1.260       .  A
O1374     Cr1391   1.969       .  S
O1374      C1375   1.256       .  A
C1375      O1376   1.262       .  A
C1375      C1574   1.463       .  S
O1376     Cr1392   1.993       .  S
O1377     Cr1392   1.986       .  S
O1377      C1378   1.256       .  A
C1378      O1379   1.260       .  A
C1378      C1584   1.482       .  S
O1379     Cr1393   1.981       .  S
O1380     Cr1393   1.985       .  S
O1380      C1381   1.257       .  A
C1381      C1564   1.487       .  S
O1382     Cr1391   1.982       .  S
O1382      C1390   1.261       .  A
O1383     Cr1391   2.001       .  S
O1383      C1384   1.264       .  A
C1384      O1385   1.263       .  A
C1384      C1412   1.467       .  S
O1385     Cr1392   1.983       .  S
O1386     Cr1392   2.014       .  S
O1386      C1387   1.269       .  A
C1387      O1388   1.266       .  A
O1388     Cr1393   1.988       .  S
O1389     Cr1393   2.015       .  S
O1389      C1390   1.271       .  A
C1390      C1428   1.475       .  S
Cr1391     O1394   1.780       .  S
Cr1392     O1394   1.779       .  S
Cr1393     O1394   1.769       .  S
O1395     Cr1413   2.011       .  S
O1395      C1403   1.265       .  A
O1396     Cr1413   1.983       .  S
O1396      C1397   1.256       .  A
C1397      O1398   1.267       .  A
C1397      C1534   1.494       .  S
O1398     Cr1414   2.006       .  S
O1399     Cr1414   1.989       .  S
O1399      C1400   1.261       .  A
C1400      O1401   1.258       .  A
C1400      C1554   1.497       .  S
O1401     Cr1415   2.005       .  S
O1402     Cr1415   1.972       .  S
O1402      C1403   1.259       .  A
C1403      C1544   1.488       .  S
O1404     Cr1413   1.983       .  S
O1404      C1412   1.262       .  A
O1405     Cr1413   2.026       .  S
O1405      C1406   1.271       .  A
C1406      O1407   1.263       .  A
C1406      C1456   1.487       .  S
O1407     Cr1414   1.989       .  S
O1408     Cr1414   2.013       .  S
O1408      C1409   1.271       .  A
C1409      O1410   1.261       .  A
O1410     Cr1415   1.969       .  S
O1411     Cr1415   2.002       .  S
O1411      C1412   1.264       .  A
Cr1413     O1416   1.781       .  S
Cr1414     O1416   1.773       .  S
Cr1415     O1416   1.782       .  S
O1417     Cr1435   1.997       .  S
O1417      C1425   1.259       .  A
O1418     Cr1435   1.991       .  S
O1418      C1419   1.257       .  A
C1419      O1420   1.254       .  A
C1419      C1507   1.459       .  S
O1420     Cr1436   1.958       .  S
O1421     Cr1436   1.999       .  S
O1421      C1422   1.262       .  A
C1422      O1423   1.262       .  A
C1422      C1524   1.484       .  S
O1423     Cr1437   1.996       .  S
O1424     Cr1437   1.999       .  S
O1424      C1425   1.263       .  A
C1425      C1517   1.494       .  S
O1426     Cr1435   2.004       .  S
O1426      C1434   1.266       .  A
O1427     Cr1435   1.999       .  S
O1427      C1428   1.266       .  A
C1428      O1429   1.263       .  A
O1429     Cr1436   1.991       .  S
O1430     Cr1436   1.992       .  S
O1430      C1431   1.263       .  A
C1431      O1432   1.268       .  A
O1432     Cr1437   2.016       .  S
O1433     Cr1437   2.001       .  S
O1433      C1434   1.267       .  A
C1434      C1450   1.481       .  S
Cr1435     O1438   1.786       .  S
Cr1436     O1438   1.776       .  S
Cr1437     O1438   1.774       .  S
O1439     Cr1457   2.003       .  S
O1439      C1447   1.261       .  A
O1440     Cr1457   1.979       .  S
O1440      C1441   1.257       .  A
C1441      O1442   1.260       .  A
C1441      C1474   1.483       .  S
O1442     Cr1458   1.996       .  S
O1443     Cr1458   1.993       .  S
O1443      C1444   1.257       .  A
C1444      O1445   1.269       .  A
C1444      C1497   1.488       .  S
O1445     Cr1459   2.024       .  S
O1446     Cr1459   1.983       .  S
O1446      C1447   1.259       .  A
C1447      C1484   1.486       .  S
O1448     Cr1457   1.986       .  S
O1448      C1456   1.266       .  A
O1449     Cr1457   2.021       .  S
O1449      C1450   1.272       .  A
C1450      O1451   1.263       .  A
O1451     Cr1458   1.987       .  S
O1452     Cr1458   2.011       .  S
O1452      C1453   1.267       .  A
C1453      O1454   1.263       .  A
O1454     Cr1459   1.981       .  S
O1455     Cr1459   2.033       .  S
O1455      C1456   1.275       .  A
Cr1457     O1460   1.777       .  S
Cr1458     O1460   1.780       .  S
Cr1459     O1460   1.771       .  S
C1461      C1462   1.393       .  D
C1461      C2413   1.527   1_455  S
C1462      C3206   1.509   1_455  S
C1462      C1527   1.544       .  S
C1463      C1464   1.404       .  D
C1463      C2560   1.563   1_455  S
C1464      C1624   1.520       .  S
C1464      C3379   1.519   1_455  S
C1465      C1466   1.401       .  D
C1466      C1514   1.496       .  S
C1467      C1468   1.380       .  D
C1467      C2958   1.499   1_455  S
C1468      C3199   1.505   1_455  S
C1468      C1504   1.502       .  S
C1469      C1470   1.388       .  D
C1470      C1477   1.511       .  S
C1471      C1472   1.380       .  D
C1471      C2981   1.498   1_455  S
C1472      C3249   1.516   1_455  S
C1472      C1567   1.501       .  S
C1473      C1474   1.405       .  A
C1473      C1478   1.399       .  A
C1473      H1480   1.083       .  S
C1474      C1475   1.409       .  A
C1475      C1476   1.392       .  A
C1475     Br1482   1.926       .  S
C1476      C1477   1.411       .  A
C1476      H1481   1.083       .  S
C1477      C1478   1.415       .  A
C1478     Br1479   1.911       .  S
C1483      C1484   1.405       .  A
C1483      C1488   1.397       .  A
C1483      H1490   1.084       .  S
C1484      C1485   1.414       .  A
C1485      C1486   1.401       .  A
C1485     Br1492   1.921       .  S
C1486      C1487   1.403       .  A
C1486      H1491   1.074       .  S
C1487      C3180   1.505       .  S
C1487      C1488   1.413       .  A
C1488     Br3201   1.919       .  S
Br1489     C3200   1.919   1_455  S
C1493      C1494   1.407       .  A
C1493      C1498   1.405       .  A
C1493      H1500   1.084       .  S
C1494      C3174   1.510       .  S
C1494      C1495   1.415       .  A
C1495      C1496   1.408       .  A
C1495     Br1502   1.916       .  S
C1496      C1497   1.404       .  A
C1496      H1501   1.084       .  S
C1497      C1498   1.402       .  A
C1498     Br1499   1.909       .  S
C1503      C1504   1.411       .  A
C1503      C1508   1.390       .  A
C1503      H1510   1.077       .  S
C1504      C1505   1.413       .  A
C1505      C1506   1.402       .  A
C1505     Br1512   1.914       .  S
C1506      C1507   1.402       .  A
C1506      H1511   1.081       .  S
C1507      C1508   1.395       .  A
C1508     Br1509   1.924       .  S
C1513      C1514   1.400       .  A
C1513      C1518   1.396       .  A
C1513      H1520   1.084       .  S
C1514      C1515   1.415       .  A
C1515      C1516   1.408       .  A
C1515     Br1522   1.919       .  S
C1516      C1517   1.409       .  A
C1516      H1521   1.080       .  S
C1517      C1518   1.412       .  A
C1518     Br1519   1.905       .  S
C1523      C1524   1.390       .  A
C1523      C1528   1.401       .  A
C1523      H1530   1.085       .  S
C1524      C1525   1.408       .  A
C1525      C1526   1.402       .  A
C1525     Br1532   1.912       .  S
C1526      C1527   1.417       .  A
C1526      H1531   1.078       .  S
C1527      C1528   1.428       .  A
C1528     Br1529   1.883       .  S
C1533      C1534   1.396       .  A
C1533      C1538   1.392       .  A
C1533      H1540   1.084       .  S
C1534      C1535   1.419       .  A
C1535      C1536   1.409       .  A
C1535     Br1542   1.911       .  S
C1536      C1537   1.407       .  A
C1536      H1541   1.082       .  S
C1537      C3184   1.516       .  S
C1537      C1538   1.415       .  A
C1538     Br3251   1.896       .  S
Br1539     C3250   1.896   1_455  S
C1543      C1544   1.403       .  A
C1543      C1548   1.394       .  A
C1543      H1550   1.084       .  S
C1544      C1545   1.413       .  A
C1545      C1546   1.402       .  A
C1545     Br1552   1.910       .  S
C1546      C1547   1.404       .  A
C1546      H1551   1.076       .  S
C1547      C1548   1.415       .  A
C1553      C1554   1.397       .  A
C1553      C1558   1.394       .  A
C1553      H1560   1.084       .  S
C1554      C1555   1.418       .  A
C1555      C1556   1.411       .  A
C1555     Br1562   1.916       .  S
C1556      C1557   1.411       .  A
C1556      H1561   1.077   1_565  S
C1557      C2317   1.527   1_565  S
C1557      C1558   1.422       .  A
C1558     Br3271   1.904       .  S
Br1559     C3270   1.904   1_455  S
C1563      C1564   1.411       .  A
C1563      C1568   1.402       .  A
C1563      H1570   1.083       .  S
C1564      C1565   1.415       .  A
C1565      C1566   1.397       .  A
C1565     Br1572   1.922       .  S
C1566      C1567   1.400       .  A
C1566      H1571   1.068       .  S
C1567      C1568   1.401       .  A
C1568     Br1569   1.914       .  S
C1573      C1574   1.394       .  A
C1573      C1578   1.401       .  A
C1573      H1580   1.079       .  S
C1574      C1575   1.388       .  A
C1575      C1576   1.389       .  A
C1575     Br1582   1.918       .  S
C1576      C1577   1.416       .  A
C1576      H1581   1.054       .  S
C1577      C1578   1.429       .  A
C1583      C1584   1.406       .  A
C1583      C1588   1.403       .  A
C1583      H1590   1.078       .  S
C1584      C1585   1.408       .  A
C1585      C1586   1.397       .  A
C1585     Br1592   1.923       .  S
C1586      C1587   1.409       .  A
C1586      H1591   1.081       .  S
C1587      C1588   1.414       .  A
C1593      C1594   1.393       .  A
C1593      C1598   1.384       .  A
C1593      H1600   1.084       .  S
C1594      C1595   1.415       .  A
C1595      C1596   1.408       .  A
C1595     Br1602   1.917       .  S
C1596      C1597   1.412       .  A
C1596      H1601   1.081   1_556  S
C1597      C1598   1.417       .  A
C1598     Br1599   1.893       .  S
C1603      C1604   1.408       .  A
C1603      C1608   1.403       .  A
C1603      H1610   1.083       .  S
C1604      C1605   1.413       .  A
C1605      C1606   1.401       .  A
C1605     Br1612   1.924       .  S
C1606      C1607   1.400       .  A
C1606      H1611   1.062   1_565  S
C1607      C1608   1.412       .  A
C1608     Br1609   1.906       .  S
C1613      C1614   1.399       .  A
C1613      C1618   1.394       .  A
C1613      H1620   1.084       .  S
C1614      C1615   1.416       .  A
C1615      C1616   1.399       .  A
C1615     Br1622   1.912       .  S
C1616      C1617   1.399       .  A
C1616      H1621   1.083       .  S
C1617      C1618   1.409       .  A
C1618     Br1619   1.905   1_556  S
C1623      C1624   1.407       .  A
C1623      C1628   1.400       .  A
C1623      H1630   1.082       .  S
C1624      C1625   1.413       .  A
C1625      C1626   1.412       .  A
C1625     Br1632   1.913       .  S
C1626      C1627   1.409       .  A
C1626      H1631   1.084       .  S
C1627      C1628   1.407       .  A
C1628     Br1629   1.914       .  S
C1633      C1634   1.381       .  A
C1633      C1638   1.383       .  A
C1633      H1640   1.086       .  S
C1634      C1635   1.397       .  A
C1635      C1636   1.403       .  A
C1635     Br1642   1.918   1_556  S
C1636      C1637   1.422       .  A
C1636      H1641   1.070   1_556  S
C1637      C1638   1.443       .  A
C1638     Br1639   1.922       .  S
C1643      C1644   1.408       .  A
C1643      C1648   1.410       .  A
C1643      H1650   1.083       .  S
C1644      C1645   1.416       .  A
C1645      C1646   1.395       .  A
C1645     Br1652   1.904       .  S
C1646      C1647   1.398       .  A
C1646      H1651   1.084       .  S
C1647      C1648   1.409       .  A
C1648     Br1649   1.895   1_556  S
C1653      C1654   1.405       .  A
C1653      C1658   1.408       .  A
C1653      H1660   1.083       .  S
C1654      C1655   1.403       .  A
C1655      C1656   1.383       .  A
C1655     Br1662   1.905       .  S
C1656      C1657   1.397       .  A
C1656      H1661   1.084       .  S
C1657      C1658   1.416       .  A
C1658     Br1659   1.910   1_556  S
C1663      C1664   1.401       .  A
C1663      C1668   1.403       .  A
C1663      H1670   1.076       .  S
C1664      C1665   1.400       .  A
C1665      C1666   1.397       .  A
C1665     Br1672   1.923       .  S
C1666      C1667   1.419       .  A
C1666      H1671   1.070       .  S
C1667      C3176   1.519       .  S
C1667      C1668   1.417       .  A
C1668     Br1669   1.916       .  S
C1673      C1674   1.402       .  A
C1673      C1678   1.395       .  A
C1673      H1680   1.075       .  S
C1674      C2751   1.499   1_556  S
C1674      C1675   1.407       .  A
C1675      C1676   1.402       .  A
C1676      C1677   1.407       .  A
C1676      H1681   1.080       .  S
C1677      C1678   1.408       .  A
C1678     Br1679   1.924       .  S
C1683      C1684   1.396       .  A
C1683      C1688   1.391       .  A
C1683      H1690   1.084       .  S
C1684      C1685   1.414       .  A
C1685      C1686   1.403       .  A
C1685     Br1692   1.914       .  S
C1686      C1687   1.409       .  A
C1686      H1691   1.081   1_556  S
C1687      C1688   1.433       .  A
C1688     Br1689   1.929   1_565  S
C1693      C1694   1.402       .  A
C1693      C1698   1.399       .  A
C1693      H1700   1.083       .  S
C1694      C1695   1.409       .  A
C1695      C1696   1.397       .  A
C1695     Br1702   1.914       .  S
C1696      C1697   1.404       .  A
C1696      H1701   1.084       .  S
C1697      C2755   1.498   1_556  S
C1697      C1698   1.415       .  A
C1698     Br1699   1.906   1_556  S
C1703      C1704   1.420       .  A
C1703      C1708   1.416       .  A
C1703      H1710   1.068   1_565  S
C1704      C2319   1.563   1_565  S
C1704      C1705   1.429       .  A
C1705      C1706   1.391       .  A
C1705     Br3424   1.899       .  S
C1706      C1707   1.391       .  A
C1706      H1711   1.084       .  S
C1707      C1708   1.413       .  A
C1708     Br1709   1.919       .  S
Br1712     C3417   1.899   1_455  S
O1713     Cr1731   1.999       .  S
O1713      C1721   1.261       .  A
O1714     Cr1731   1.978       .  S
O1714      C1715   1.256       .  A
C1715      O1716   1.266       .  A
C1715      C2112   1.488       .  S
O1716     Cr1732   1.999       .  S
O1717     Cr1732   1.995       .  S
O1717      C1718   1.259       .  A
C1718      O1719   1.267       .  A
C1718      C2135   1.498       .  S
O1719     Cr1733   2.008       .  S
O1720     Cr1733   1.978       .  S
O1720      C1721   1.259       .  A
C1721      C2122   1.481       .  S
O1722     Cr1731   1.975       .  S
O1722      C1730   1.261       .  A
O1723     Cr1731   2.005       .  S
O1723      C1724   1.265       .  A
C1724      O1725   1.261       .  A
C1724      C1796   1.465       .  S
O1725     Cr1732   1.979       .  S
O1726     Cr1732   2.008       .  S
O1726      C1727   1.268       .  A
C1727      O1728   1.261       .  A
C1727      C1837   1.463       .  S
O1728     Cr1733   1.972       .  S
O1729     Cr1733   2.017       .  S
O1729      C1730   1.269       .  A
C1730      C1746   1.469       .  S
Cr1731     O1734   1.781       .  S
Cr1732     O1734   1.777       .  S
Cr1733     O1734   1.770       .  S
O1735     Cr1753   2.002       .  S
O1735      C1743   1.258       .  A
O1736     Cr1753   1.982       .  S
O1736      C1737   1.257       .  A
C1737      O1738   1.263       .  A
C1737      C2105   1.482       .  S
O1738     Cr1754   1.993       .  S
O1739     Cr1754   1.981       .  S
O1739      C1740   1.258       .  A
C1740      O1741   1.264       .  A
C1740      C2092   1.481       .  S
O1741     Cr1755   2.013       .  S
O1742     Cr1755   1.973       .  S
O1742      C1743   1.257       .  A
C1743      C2082   1.474       .  S
O1744     Cr1753   1.976       .  S
O1744      C1752   1.262       .  A
O1745     Cr1753   2.009       .  S
O1745      C1746   1.266       .  A
C1746      O1747   1.260       .  A
O1747     Cr1754   1.979       .  S
O1748     Cr1754   2.003       .  S
O1748      C1749   1.265       .  A
C1749      O1750   1.264       .  A
C1749      C1881   1.472       .  S
O1750     Cr1755   1.985       .  S
O1751     Cr1755   2.022       .  S
O1751      C1752   1.272       .  A
C1752      C1768   1.473       .  S
Cr1753     O1756   1.790       .  S
Cr1754     O1756   1.778       .  S
Cr1755     O1756   1.777       .  S
O1757     Cr1775   2.027       .  S
O1757      C1765   1.268       .  A
O1758     Cr1775   1.972       .  S
O1758      C1759   1.253       .  A
C1759      O1760   1.261       .  A
C1759      C2062   1.462       .  S
O1760     Cr1776   1.989       .  S
O1761     Cr1776   1.992       .  S
O1761      C1762   1.260       .  A
C1762      O1763   1.271       .  A
C1762      C2055   1.495       .  S
O1763     Cr1777   2.025       .  S
O1764     Cr1777   1.979       .  S
O1764      C1765   1.259       .  A
C1765      C2072   1.499       .  S
O1766     Cr1775   1.962       .  S
O1766      C1774   1.256       .  A
O1767     Cr1775   2.022       .  S
O1767      C1768   1.272       .  A
C1768      O1769   1.264       .  A
O1769     Cr1776   1.980       .  S
O1770     Cr1776   2.018       .  S
O1770      C1771   1.268       .  A
C1771      O1772   1.262       .  A
C1771      C1859   1.483       .  S
O1772     Cr1777   1.992       .  S
O1773     Cr1777   2.022       .  S
O1773      C1774   1.271       .  A
C1774      C1790   1.467       .  S
Cr1775     O1778   1.784       .  S
Cr1776     O1778   1.775       .  S
Cr1777     O1778   1.772       .  S
O1779     Cr1797   1.997       .  S
O1779      C1787   1.261       .  A
O1780     Cr1797   1.984       .  S
O1780      C1781   1.255       .  A
C1781      O1782   1.266       .  A
C1781      C2022   1.486       .  S
O1782     Cr1798   1.995       .  S
O1783     Cr1798   1.988       .  S
O1783      C1784   1.257       .  A
C1784      O1785   1.259       .  A
C1784      C2032   1.492       .  S
O1785     Cr1799   1.998       .  S
O1786     Cr1799   1.980       .  S
O1786      C1787   1.258       .  A
C1787      C2042   1.467       .  S
O1788     Cr1797   1.979       .  S
O1788      C1796   1.263       .  A
O1789     Cr1797   2.010       .  S
O1789      C1790   1.269       .  A
C1790      O1791   1.261       .  A
O1791     Cr1798   1.974       .  S
O1792     Cr1798   2.026       .  S
O1792      C1793   1.273       .  A
C1793      O1794   1.264       .  A
C1793      C1815   1.478       .  S
O1794     Cr1799   1.982       .  S
O1795     Cr1799   2.006       .  S
O1795      C1796   1.266       .  A
Cr1797     O1800   1.778       .  S
Cr1798     O1800   1.770       .  S
Cr1799     O1800   1.771       .  S
O1801     Cr1819   2.002       .  S
O1801      C1809   1.260       .  A
O1802     Cr1819   1.969       .  S
O1802      C1803   1.256       .  A
C1803      O1804   1.262       .  A
C1803      C2002   1.463       .  S
O1804     Cr1820   1.993       .  S
O1805     Cr1820   1.986       .  S
O1805      C1806   1.256       .  A
C1806      O1807   1.260       .  A
C1806      C2012   1.482       .  S
O1807     Cr1821   1.981       .  S
O1808     Cr1821   1.985       .  S
O1808      C1809   1.257       .  A
C1809      C1992   1.487       .  S
O1810     Cr1819   1.982       .  S
O1810      C1818   1.261       .  A
O1811     Cr1819   2.001       .  S
O1811      C1812   1.264       .  A
C1812      O1813   1.263       .  A
C1812      C1840   1.467       .  S
O1813     Cr1820   1.983       .  S
O1814     Cr1820   2.014       .  S
O1814      C1815   1.269       .  A
C1815      O1816   1.266       .  A
O1816     Cr1821   1.988       .  S
O1817     Cr1821   2.015       .  S
O1817      C1818   1.271       .  A
C1818      C1856   1.475       .  S
Cr1819     O1822   1.780       .  S
Cr1820     O1822   1.779       .  S
Cr1821     O1822   1.769       .  S
O1823     Cr1841   2.011       .  S
O1823      C1831   1.265       .  A
O1824     Cr1841   1.983       .  S
O1824      C1825   1.256       .  A
C1825      O1826   1.267       .  A
C1825      C1962   1.494       .  S
O1826     Cr1842   2.006       .  S
O1827     Cr1842   1.989       .  S
O1827      C1828   1.261       .  A
C1828      O1829   1.258       .  A
C1828      C1982   1.497       .  S
O1829     Cr1843   2.005       .  S
O1830     Cr1843   1.972       .  S
O1830      C1831   1.259       .  A
C1831      C1972   1.488       .  S
O1832     Cr1841   1.983       .  S
O1832      C1840   1.262       .  A
O1833     Cr1841   2.026       .  S
O1833      C1834   1.271       .  A
C1834      O1835   1.263       .  A
C1834      C1884   1.487       .  S
O1835     Cr1842   1.989       .  S
O1836     Cr1842   2.013       .  S
O1836      C1837   1.271       .  A
C1837      O1838   1.261       .  A
O1838     Cr1843   1.969       .  S
O1839     Cr1843   2.002       .  S
O1839      C1840   1.264       .  A
Cr1841     O1844   1.781       .  S
Cr1842     O1844   1.773       .  S
Cr1843     O1844   1.782       .  S
O1845     Cr1863   1.997       .  S
O1845      C1853   1.259       .  A
O1846     Cr1863   1.991       .  S
O1846      C1847   1.257       .  A
C1847      O1848   1.254       .  A
C1847      C1935   1.459       .  S
O1848     Cr1864   1.958       .  S
O1849     Cr1864   1.999       .  S
O1849      C1850   1.262       .  A
C1850      O1851   1.262       .  A
C1850      C1952   1.484       .  S
O1851     Cr1865   1.996       .  S
O1852     Cr1865   1.999       .  S
O1852      C1853   1.263       .  A
C1853      C1945   1.494       .  S
O1854     Cr1863   2.004       .  S
O1854      C1862   1.266       .  A
O1855     Cr1863   1.999       .  S
O1855      C1856   1.266       .  A
C1856      O1857   1.263       .  A
O1857     Cr1864   1.991       .  S
O1858     Cr1864   1.992       .  S
O1858      C1859   1.263       .  A
C1859      O1860   1.268       .  A
O1860     Cr1865   2.016       .  S
O1861     Cr1865   2.001       .  S
O1861      C1862   1.267       .  A
C1862      C1878   1.481       .  S
Cr1863     O1866   1.786       .  S
Cr1864     O1866   1.776       .  S
Cr1865     O1866   1.774       .  S
O1867     Cr1885   2.003       .  S
O1867      C1875   1.261       .  A
O1868     Cr1885   1.979       .  S
O1868      C1869   1.257       .  A
C1869      O1870   1.260       .  A
C1869      C1902   1.483       .  S
O1870     Cr1886   1.996       .  S
O1871     Cr1886   1.993       .  S
O1871      C1872   1.257       .  A
C1872      O1873   1.269       .  A
C1872      C1925   1.488       .  S
O1873     Cr1887   2.024       .  S
O1874     Cr1887   1.983       .  S
O1874      C1875   1.259       .  A
C1875      C1912   1.486       .  S
O1876     Cr1885   1.986       .  S
O1876      C1884   1.266       .  A
O1877     Cr1885   2.021       .  S
O1877      C1878   1.272       .  A
C1878      O1879   1.263       .  A
O1879     Cr1886   1.987       .  S
O1880     Cr1886   2.011       .  S
O1880      C1881   1.267       .  A
C1881      O1882   1.263       .  A
O1882     Cr1887   1.981       .  S
O1883     Cr1887   2.033       .  S
O1883      C1884   1.275       .  A
Cr1885     O1888   1.777       .  S
Cr1886     O1888   1.780       .  S
Cr1887     O1888   1.771       .  S
C1889      C1890   1.393       .  D
C1889      C2871   1.496   1_545  S
C1890      C1955   1.544       .  S
C1891      C1892   1.404       .  D
C1891      C2891   1.517   1_545  S
C1892      C2052   1.520       .  S
C1893      C1894   1.401       .  D
C1893      C3329   1.479   1_544  S
C1893      C2493   1.549   1_554  S
C1894      C1942   1.496       .  S
C1894      C2861   1.541   1_545  S
C1895      C1896   1.380       .  D
C1895      C2503   1.504   1_554  S
C1896      C1932   1.502       .  S
C1897      C1898   1.388       .  D
C1897      C2513   1.486   1_554  S
C1897      C3399   1.521   1_544  S
C1898      C1905   1.511       .  S
C1898      C2831   1.508   1_545  S
C1899      C1900   1.380       .  D
C1899      C2453   1.517   1_554  S
C1900      C1995   1.501       .  S
C1901      C1902   1.405       .  A
C1901      C1906   1.399       .  A
C1901      H1908   1.083       .  S
C1902      C1903   1.409       .  A
C1903      C1904   1.392       .  A
C1903     Br1910   1.926       .  S
C1904      C1905   1.411       .  A
C1904      H1909   1.083       .  S
C1905      C1906   1.415       .  A
C1906     Br1907   1.911       .  S
C1911      C1912   1.405       .  A
C1911      C1916   1.397       .  A
C1911      H1918   1.084       .  S
C1912      C1913   1.414       .  A
C1913      C1914   1.401       .  A
C1913     Br1920   1.921       .  S
C1914      C1915   1.403       .  A
C1914      H1919   1.074       .  S
C1915      C1916   1.413       .  A
C1921      C1922   1.407       .  A
C1921      C1926   1.405       .  A
C1921      H1928   1.084       .  S
C1922      C1923   1.415       .  A
C1923      C1924   1.408       .  A
C1923     Br1930   1.916       .  S
C1924      C1925   1.404       .  A
C1924      H1929   1.084       .  S
C1925      C1926   1.402       .  A
C1926     Br1927   1.909       .  S
C1931      C1932   1.411       .  A
C1931      C1936   1.390       .  A
C1931      H1938   1.077       .  S
C1932      C1933   1.413       .  A
C1933      C1934   1.402       .  A
C1933     Br1940   1.914       .  S
C1934      C1935   1.402       .  A
C1934      H1939   1.081       .  S
C1935      C1936   1.395       .  A
C1936     Br1937   1.924       .  S
C1941      C1942   1.400       .  A
C1941      C1946   1.396       .  A
C1941      H1948   1.084       .  S
C1942      C1943   1.415       .  A
C1943      C1944   1.408       .  A
C1943     Br1950   1.919       .  S
C1944      C1945   1.409       .  A
C1944      H1949   1.080       .  S
C1945      C1946   1.412       .  A
C1946     Br1947   1.905       .  S
C1951      C1952   1.390       .  A
C1951      C1956   1.401       .  A
C1951      H1958   1.085       .  S
C1952      C1953   1.408       .  A
C1953      C1954   1.402       .  A
C1953     Br1960   1.912       .  S
C1954      C1955   1.417       .  A
C1954      H1959   1.078       .  S
C1955      C1956   1.428       .  A
C1956     Br1957   1.883       .  S
C1961      C1962   1.396       .  A
C1961      C1966   1.392       .  A
C1961      H1968   1.084       .  S
C1962      C1963   1.419       .  A
C1963      C1964   1.409       .  A
C1963     Br1970   1.911       .  S
C1964      C1965   1.407       .  A
C1964      H1969   1.082       .  S
C1965      C1966   1.415       .  A
C1971      C1972   1.403       .  A
C1971      C1976   1.394       .  A
C1971      H1978   1.084       .  S
C1972      C1973   1.413       .  A
C1973      C1974   1.402       .  A
C1973     Br1980   1.910       .  S
C1974      C1975   1.404       .  A
C1974      H1979   1.076       .  S
C1975      C2754   1.508       .  S
C1975      C1976   1.415       .  A
C1976     Br2833   1.917       .  S
Br1977     C2832   1.917   1_545  S
C1981      C1982   1.397       .  A
C1981      C1986   1.394       .  A
C1981      H1988   1.084       .  S
C1982      C1983   1.418       .  A
C1983      C1984   1.411       .  A
C1983     Br1990   1.916       .  S
C1984      C1985   1.411       .  A
C1984      H1989   1.077       .  S
C1985      C1986   1.422       .  A
C1991      C1992   1.411       .  A
C1991      C1996   1.402       .  A
C1991      H1998   1.083       .  S
C1992      C1993   1.415       .  A
C1993      C1994   1.397       .  A
C1993     Br2000   1.922       .  S
C1994      C1995   1.400       .  A
C1994      H1999   1.068       .  S
C1995      C1996   1.401       .  A
C1996     Br1997   1.914       .  S
C2001      C2002   1.394       .  A
C2001      C2006   1.401       .  A
C2001      H2008   1.079       .  S
C2002      C2003   1.388       .  A
C2003      C2004   1.389       .  A
C2003     Br2010   1.918       .  S
C2004      C2005   1.416       .  A
C2004      H2009   1.054       .  S
C2005      C2750   1.541       .  S
C2005      C2006   1.429       .  A
C2006     Br2863   1.916       .  S
Br2007     C2862   1.916   1_545  S
C2011      C2012   1.406       .  A
C2011      C2016   1.403       .  A
C2011      H2018   1.078       .  S
C2012      C2013   1.408       .  A
C2013      C2014   1.397       .  A
C2013     Br2020   1.923       .  S
C2014      C2015   1.409       .  A
C2014      H2019   1.081       .  S
C2015      C2745   1.496       .  S
C2015      C2016   1.414       .  A
C2016     Br2873   1.919       .  S
Br2017     C2872   1.919   1_545  S
C2021      C2022   1.393       .  A
C2021      C2026   1.384       .  A
C2021      H2028   1.084       .  S
C2022      C2023   1.415       .  A
C2023      C2024   1.408       .  A
C2023     Br2030   1.917       .  S
C2024      C2025   1.412       .  A
C2024      H2029   1.081       .  S
C2025      C2327   1.517       .  S
C2025      C2026   1.417       .  A
C2026     Br2027   1.893       .  S
C2031      C2032   1.408       .  A
C2031      C2036   1.403       .  A
C2031      H2038   1.083       .  S
C2032      C2033   1.413       .  A
C2033      C2034   1.401       .  A
C2033     Br2040   1.924       .  S
C2034      C2035   1.400       .  A
C2034      H2039   1.062       .  S
C2035      C2747   1.517       .  S
C2035      C2036   1.412       .  A
C2036     Br2037   1.906       .  S
C2041      C2042   1.399       .  A
C2041      C2046   1.394       .  A
C2041      H2048   1.084       .  S
C2042      C2043   1.416       .  A
C2043      C2044   1.399       .  A
C2043     Br2050   1.912       .  S
C2044      C2045   1.399       .  A
C2044      H2049   1.083       .  S
C2045      C3177   1.479       .  S
C2045      C2046   1.409       .  A
C2046     Br2047   1.905       .  S
C2051      C2052   1.407       .  A
C2051      C2056   1.400       .  A
C2051      H2058   1.082       .  S
C2052      C2053   1.413       .  A
C2053      C2054   1.412       .  A
C2053     Br2060   1.913       .  S
C2054      C2055   1.409       .  A
C2054      H2059   1.084       .  S
C2055      C2056   1.407       .  A
C2056     Br2057   1.914       .  S
C2061      C2062   1.381       .  A
C2061      C2066   1.383       .  A
C2061      H2068   1.086       .  S
C2062      C2063   1.397       .  A
C2063      C2064   1.403       .  A
C2063     Br2070   1.918       .  S
C2064      C2065   1.422       .  A
C2064      H2069   1.070       .  S
C2065      C2321   1.549       .  S
C2065      C2066   1.443       .  A
C2066     Br2067   1.922       .  S
C2071      C2072   1.408       .  A
C2071      C2076   1.410       .  A
C2071      H2078   1.083       .  S
C2072      C2073   1.416       .  A
C2073      C2074   1.395       .  A
C2073     Br2080   1.904       .  S
C2074      C2075   1.398       .  A
C2074      H2079   1.084       .  S
C2075      C2323   1.504       .  S
C2075      C2076   1.409       .  A
C2076     Br2077   1.895       .  S
C2081      C2082   1.405       .  A
C2081      C2086   1.408       .  A
C2081      H2088   1.083       .  S
C2082      C2083   1.403       .  A
C2083      C2084   1.383       .  A
C2083     Br2090   1.905       .  S
C2084      C2085   1.397       .  A
C2084      H2089   1.084       .  S
C2085      C2325   1.486       .  S
C2085      C2086   1.416       .  A
C2086     Br2087   1.910       .  S
C2091      C2092   1.401       .  A
C2091      C2096   1.403       .  A
C2091      H2098   1.076       .  S
C2092      C2093   1.400       .  A
C2093      C2094   1.397       .  A
C2093     Br2100   1.923       .  S
C2094      C2095   1.419       .  A
C2094      H2099   1.070   1_655  S
C2095      C2096   1.417       .  A
C2096     Br2097   1.916       .  S
C2101      C2102   1.402       .  A
C2101      C2106   1.395       .  A
C2101      H2108   1.075       .  S
C2102      C2103   1.407       .  A
C2103      C2104   1.402       .  A
C2103     Br2538   1.913       .  S
C2104      C2105   1.407       .  A
C2104      H2109   1.080       .  S
C2105      C2106   1.408       .  A
C2106     Br2107   1.924       .  S
Br2110     C2531   1.913   1_554  S
C2111      C2112   1.396       .  A
C2111      C2116   1.391       .  A
C2111      H2118   1.084       .  S
C2112      C2113   1.414       .  A
C2113      C2114   1.403       .  A
C2113     Br2120   1.914       .  S
C2114      C2115   1.409       .  A
C2114      H2119   1.081       .  S
C2115      C3181   1.521       .  S
C2115      C2116   1.433       .  A
C2116     Br2117   1.929       .  S
C2121      C2122   1.402       .  A
C2121      C2126   1.399       .  A
C2121      H2128   1.083       .  S
C2122      C2123   1.409       .  A
C2123      C2124   1.397       .  A
C2123     Br2130   1.914       .  S
C2124      C2125   1.404       .  A
C2124      H2129   1.084   1_655  S
C2125      C2126   1.415       .  A
C2126     Br2127   1.906       .  S
C2131      C2132   1.420       .  A
C2131      C2136   1.416       .  A
C2131      H2138   1.068       .  S
C2132      C2133   1.429       .  A
C2133      C2134   1.391       .  A
C2134      C2135   1.391       .  A
C2134      H2139   1.084       .  S
C2135      C2136   1.413       .  A
C2136     Br2137   1.919       .  S
O2141     Cr2159   1.999       .  S
O2141      C2149   1.261       .  A
O2142     Cr2159   1.978       .  S
O2142      C2143   1.256       .  A
C2143      O2144   1.266       .  A
C2143      C2540   1.488       .  S
O2144     Cr2160   1.999       .  S
O2145     Cr2160   1.995       .  S
O2145      C2146   1.259       .  A
C2146      O2147   1.267       .  A
C2146      C2563   1.498       .  S
O2147     Cr2161   2.008       .  S
O2148     Cr2161   1.978       .  S
O2148      C2149   1.259       .  A
C2149      C2550   1.481       .  S
O2150     Cr2159   1.975       .  S
O2150      C2158   1.261       .  A
O2151     Cr2159   2.005       .  S
O2151      C2152   1.265       .  A
C2152      O2153   1.261       .  A
C2152      C2224   1.465       .  S
O2153     Cr2160   1.979       .  S
O2154     Cr2160   2.008       .  S
O2154      C2155   1.268       .  A
C2155      O2156   1.261       .  A
C2155      C2265   1.463       .  S
O2156     Cr2161   1.972       .  S
O2157     Cr2161   2.017       .  S
O2157      C2158   1.269       .  A
C2158      C2174   1.469       .  S
Cr2159     O2162   1.781       .  S
Cr2160     O2162   1.777       .  S
Cr2161     O2162   1.770       .  S
O2163     Cr2181   2.002       .  S
O2163      C2171   1.258       .  A
O2164     Cr2181   1.982       .  S
O2164      C2165   1.257       .  A
C2165      O2166   1.263       .  A
C2165      C2533   1.482       .  S
O2166     Cr2182   1.993       .  S
O2167     Cr2182   1.981       .  S
O2167      C2168   1.258       .  A
C2168      O2169   1.264       .  A
C2168      C2520   1.481       .  S
O2169     Cr2183   2.013       .  S
O2170     Cr2183   1.973       .  S
O2170      C2171   1.257       .  A
C2171      C2510   1.474       .  S
O2172     Cr2181   1.976       .  S
O2172      C2180   1.262       .  A
O2173     Cr2181   2.009       .  S
O2173      C2174   1.266       .  A
C2174      O2175   1.260       .  A
O2175     Cr2182   1.979       .  S
O2176     Cr2182   2.003       .  S
O2176      C2177   1.265       .  A
C2177      O2178   1.264       .  A
C2177      C2309   1.472       .  S
O2178     Cr2183   1.985       .  S
O2179     Cr2183   2.022       .  S
O2179      C2180   1.272       .  A
C2180      C2196   1.473       .  S
Cr2181     O2184   1.790       .  S
Cr2182     O2184   1.778       .  S
Cr2183     O2184   1.777       .  S
O2185     Cr2203   2.027       .  S
O2185      C2193   1.268       .  A
O2186     Cr2203   1.972       .  S
O2186      C2187   1.253       .  A
C2187      O2188   1.261       .  A
C2187      C2490   1.462       .  S
O2188     Cr2204   1.989       .  S
O2189     Cr2204   1.992       .  S
O2189      C2190   1.260       .  A
C2190      O2191   1.271       .  A
C2190      C2483   1.495       .  S
O2191     Cr2205   2.025       .  S
O2192     Cr2205   1.979       .  S
O2192      C2193   1.259       .  A
C2193      C2500   1.499       .  S
O2194     Cr2203   1.962       .  S
O2194      C2202   1.256       .  A
O2195     Cr2203   2.022       .  S
O2195      C2196   1.272       .  A
C2196      O2197   1.264       .  A
O2197     Cr2204   1.980       .  S
O2198     Cr2204   2.018       .  S
O2198      C2199   1.268       .  A
C2199      O2200   1.262       .  A
C2199      C2287   1.483       .  S
O2200     Cr2205   1.992       .  S
O2201     Cr2205   2.022       .  S
O2201      C2202   1.271       .  A
C2202      C2218   1.467       .  S
Cr2203     O2206   1.784       .  S
Cr2204     O2206   1.775       .  S
Cr2205     O2206   1.772       .  S
O2207     Cr2225   1.997       .  S
O2207      C2215   1.261       .  A
O2208     Cr2225   1.984       .  S
O2208      C2209   1.255       .  A
C2209      O2210   1.266       .  A
C2209      C2450   1.486       .  S
O2210     Cr2226   1.995       .  S
O2211     Cr2226   1.988       .  S
O2211      C2212   1.257       .  A
C2212      O2213   1.259       .  A
C2212      C2460   1.492       .  S
O2213     Cr2227   1.998       .  S
O2214     Cr2227   1.980       .  S
O2214      C2215   1.258       .  A
C2215      C2470   1.467       .  S
O2216     Cr2225   1.979       .  S
O2216      C2224   1.263       .  A
O2217     Cr2225   2.010       .  S
O2217      C2218   1.269       .  A
C2218      O2219   1.261       .  A
O2219     Cr2226   1.974       .  S
O2220     Cr2226   2.026       .  S
O2220      C2221   1.273       .  A
C2221      O2222   1.264       .  A
C2221      C2243   1.478       .  S
O2222     Cr2227   1.982       .  S
O2223     Cr2227   2.006       .  S
O2223      C2224   1.266       .  A
Cr2225     O2228   1.778       .  S
Cr2226     O2228   1.770       .  S
Cr2227     O2228   1.771       .  S
O2229     Cr2247   2.002       .  S
O2229      C2237   1.260       .  A
O2230     Cr2247   1.969       .  S
O2230      C2231   1.256       .  A
C2231      O2232   1.262       .  A
C2231      C2430   1.463       .  S
O2232     Cr2248   1.993       .  S
O2233     Cr2248   1.986       .  S
O2233      C2234   1.256       .  A
C2234      O2235   1.260       .  A
C2234      C2440   1.482       .  S
O2235     Cr2249   1.981       .  S
O2236     Cr2249   1.985       .  S
O2236      C2237   1.257       .  A
C2237      C2420   1.487       .  S
O2238     Cr2247   1.982       .  S
O2238      C2246   1.261       .  A
O2239     Cr2247   2.001       .  S
O2239      C2240   1.264       .  A
C2240      O2241   1.263       .  A
C2240      C2268   1.467       .  S
O2241     Cr2248   1.983       .  S
O2242     Cr2248   2.014       .  S
O2242      C2243   1.269       .  A
C2243      O2244   1.266       .  A
O2244     Cr2249   1.988       .  S
O2245     Cr2249   2.015       .  S
O2245      C2246   1.271       .  A
C2246      C2284   1.475       .  S
Cr2247     O2250   1.780       .  S
Cr2248     O2250   1.779       .  S
Cr2249     O2250   1.769       .  S
O2251     Cr2269   2.011       .  S
O2251      C2259   1.265       .  A
O2252     Cr2269   1.983       .  S
O2252      C2253   1.256       .  A
C2253      O2254   1.267       .  A
C2253      C2390   1.494       .  S
O2254     Cr2270   2.006       .  S
O2255     Cr2270   1.989       .  S
O2255      C2256   1.261       .  A
C2256      O2257   1.258       .  A
C2256      C2410   1.497       .  S
O2257     Cr2271   2.005       .  S
O2258     Cr2271   1.972       .  S
O2258      C2259   1.259       .  A
C2259      C2400   1.488       .  S
O2260     Cr2269   1.983       .  S
O2260      C2268   1.262       .  A
O2261     Cr2269   2.026       .  S
O2261      C2262   1.271       .  A
C2262      O2263   1.263       .  A
C2262      C2312   1.487       .  S
O2263     Cr2270   1.989       .  S
O2264     Cr2270   2.013       .  S
O2264      C2265   1.271       .  A
C2265      O2266   1.261       .  A
O2266     Cr2271   1.969       .  S
O2267     Cr2271   2.002       .  S
O2267      C2268   1.264       .  A
Cr2269     O2272   1.781       .  S
Cr2270     O2272   1.773       .  S
Cr2271     O2272   1.782       .  S
O2273     Cr2291   1.997       .  S
O2273      C2281   1.259       .  A
O2274     Cr2291   1.991       .  S
O2274      C2275   1.257       .  A
C2275      O2276   1.254       .  A
C2275      C2363   1.459       .  S
O2276     Cr2292   1.958       .  S
O2277     Cr2292   1.999       .  S
O2277      C2278   1.262       .  A
C2278      O2279   1.262       .  A
C2278      C2380   1.484       .  S
O2279     Cr2293   1.996       .  S
O2280     Cr2293   1.999       .  S
O2280      C2281   1.263       .  A
C2281      C2373   1.494       .  S
O2282     Cr2291   2.004       .  S
O2282      C2290   1.266       .  A
O2283     Cr2291   1.999       .  S
O2283      C2284   1.266       .  A
C2284      O2285   1.263       .  A
O2285     Cr2292   1.991       .  S
O2286     Cr2292   1.992       .  S
O2286      C2287   1.263       .  A
C2287      O2288   1.268       .  A
O2288     Cr2293   2.016       .  S
O2289     Cr2293   2.001       .  S
O2289      C2290   1.267       .  A
C2290      C2306   1.481       .  S
Cr2291     O2294   1.786       .  S
Cr2292     O2294   1.776       .  S
Cr2293     O2294   1.774       .  S
O2295     Cr2313   2.003       .  S
O2295      C2303   1.261       .  A
O2296     Cr2313   1.979       .  S
O2296      C2297   1.257       .  A
C2297      O2298   1.260       .  A
C2297      C2330   1.483       .  S
O2298     Cr2314   1.996       .  S
O2299     Cr2314   1.993       .  S
O2299      C2300   1.257       .  A
C2300      O2301   1.269       .  A
C2300      C2353   1.488       .  S
O2301     Cr2315   2.024       .  S
O2302     Cr2315   1.983       .  S
O2302      C2303   1.259       .  A
C2303      C2340   1.486       .  S
O2304     Cr2313   1.986       .  S
O2304      C2312   1.266       .  A
O2305     Cr2313   2.021       .  S
O2305      C2306   1.272       .  A
C2306      O2307   1.263       .  A
O2307     Cr2314   1.987       .  S
O2308     Cr2314   2.011       .  S
O2308      C2309   1.267       .  A
C2309      O2310   1.263       .  A
O2310     Cr2315   1.981       .  S
O2311     Cr2315   2.033       .  S
O2311      C2312   1.275       .  A
Cr2313     O2316   1.777       .  S
Cr2314     O2316   1.780       .  S
Cr2315     O2316   1.771       .  S
C2317      C2318   1.393       .  D
C2317      C3299   1.496   1_545  S
C2318      C2383   1.544       .  S
C2319      C2320   1.404       .  D
C2319      C3319   1.517   1_545  S
C2320      C2480   1.520       .  S
C2321      C2322   1.401       .  D
C2321      C2901   1.479   1_545  S
C2322      C2370   1.496       .  S
C2322      C3289   1.541   1_545  S
C2323      C2324   1.380       .  D
C2324      C2360   1.502       .  S
C2325      C2326   1.388       .  D
C2325      C2971   1.521   1_545  S
C2326      C2333   1.511       .  S
C2326      C3259   1.508   1_545  S
C2327      C2328   1.380       .  D
C2328      C2423   1.501       .  S
C2329      C2330   1.405       .  A
C2329      C2334   1.399       .  A
C2329      H2336   1.083       .  S
C2330      C2331   1.409       .  A
C2331      C2332   1.392       .  A
C2331     Br2338   1.926       .  S
C2332      C2333   1.411       .  A
C2332      H2337   1.083       .  S
C2333      C2334   1.415       .  A
C2334     Br2335   1.911       .  S
C2339      C2340   1.405       .  A
C2339      C2344   1.397       .  A
C2339      H2346   1.084       .  S
C2340      C2341   1.414       .  A
C2341      C2342   1.401       .  A
C2341     Br2348   1.921       .  S
C2342      C2343   1.403       .  A
C2342      H2347   1.074       .  S
C2343      C2344   1.413       .  A
C2349      C2350   1.407       .  A
C2349      C2354   1.405       .  A
C2349      H2356   1.084       .  S
C2350      C2351   1.415       .  A
C2351      C2352   1.408       .  A
C2351     Br2358   1.916       .  S
C2352      C2353   1.404       .  A
C2352      H2357   1.084       .  S
C2353      C2354   1.402       .  A
C2354     Br2355   1.909       .  S
C2359      C2360   1.411       .  A
C2359      C2364   1.390       .  A
C2359      H2366   1.077       .  S
C2360      C2361   1.413       .  A
C2361      C2362   1.402       .  A
C2361     Br2368   1.914       .  S
C2362      C2363   1.402       .  A
C2362      H2367   1.081       .  S
C2363      C2364   1.395       .  A
C2364     Br2365   1.924       .  S
C2369      C2370   1.400       .  A
C2369      C2374   1.396       .  A
C2369      H2376   1.084       .  S
C2370      C2371   1.415       .  A
C2371      C2372   1.408       .  A
C2371     Br2378   1.919       .  S
C2372      C2373   1.409       .  A
C2372      H2377   1.080       .  S
C2373      C2374   1.412       .  A
C2374     Br2375   1.905       .  S
C2379      C2380   1.390       .  A
C2379      C2384   1.401       .  A
C2379      H2386   1.085       .  S
C2380      C2381   1.408       .  A
C2381      C2382   1.402       .  A
C2381     Br2388   1.912       .  S
C2382      C2383   1.417       .  A
C2382      H2387   1.078       .  S
C2383      C2384   1.428       .  A
C2384     Br2385   1.883       .  S
C2389      C2390   1.396       .  A
C2389      C2394   1.392       .  A
C2389      H2396   1.084       .  S
C2390      C2391   1.419       .  A
C2391      C2392   1.409       .  A
C2391     Br2398   1.911       .  S
C2392      C2393   1.407       .  A
C2392      H2397   1.082       .  S
C2393      C2394   1.415       .  A
C2399      C2400   1.403       .  A
C2399      C2404   1.394       .  A
C2399      H2406   1.084       .  S
C2400      C2401   1.413       .  A
C2401      C2402   1.402       .  A
C2401     Br2408   1.910       .  S
C2402      C2403   1.404       .  A
C2402      H2407   1.076       .  S
C2403      C3182   1.508       .  S
C2403      C2404   1.415       .  A
C2404     Br3261   1.917       .  S
Br2405     C3260   1.917   1_545  S
C2409      C2410   1.397       .  A
C2409      C2414   1.394       .  A
C2409      H2416   1.084       .  S
C2410      C2411   1.418       .  A
C2411      C2412   1.411       .  A
C2411     Br2418   1.916       .  S
C2412      C2413   1.411       .  A
C2412      H2417   1.077       .  S
C2413      C2414   1.422       .  A
C2419      C2420   1.411       .  A
C2419      C2424   1.402       .  A
C2419      H2426   1.083       .  S
C2420      C2421   1.415       .  A
C2421      C2422   1.397       .  A
C2421     Br2428   1.922       .  S
C2422      C2423   1.400       .  A
C2422      H2427   1.068       .  S
C2423      C2424   1.401       .  A
C2424     Br2425   1.914       .  S
C2429      C2430   1.394       .  A
C2429      C2434   1.401       .  A
C2429      H2436   1.079       .  S
C2430      C2431   1.388       .  A
C2431      C2432   1.389       .  A
C2431     Br2438   1.918       .  S
C2432      C2433   1.416       .  A
C2432      H2437   1.054       .  S
C2433      C3178   1.541       .  S
C2433      C2434   1.429       .  A
C2434     Br3291   1.916       .  S
Br2435     C3290   1.916   1_545  S
C2439      C2440   1.406       .  A
C2439      C2444   1.403       .  A
C2439      H2446   1.078       .  S
C2440      C2441   1.408       .  A
C2441      C2442   1.397       .  A
C2441     Br2448   1.923       .  S
C2442      C2443   1.409       .  A
C2442      H2447   1.081       .  S
C2443      C3173   1.496       .  S
C2443      C2444   1.414       .  A
C2444     Br3301   1.919       .  S
Br2445     C3300   1.919   1_545  S
C2449      C2450   1.393       .  A
C2449      C2454   1.384       .  A
C2449      H2456   1.084       .  S
C2450      C2451   1.415       .  A
C2451      C2452   1.408       .  A
C2451     Br2458   1.917       .  S
C2452      C2453   1.412       .  A
C2452      H2457   1.081   1_556  S
C2453      C2454   1.417       .  A
C2454     Br2455   1.893       .  S
C2459      C2460   1.408       .  A
C2459      C2464   1.403       .  A
C2459      H2466   1.083       .  S
C2460      C2461   1.413       .  A
C2461      C2462   1.401       .  A
C2461     Br2468   1.924       .  S
C2462      C2463   1.400       .  A
C2462      H2467   1.062       .  S
C2463      C3175   1.517       .  S
C2463      C2464   1.412       .  A
C2464     Br2465   1.906       .  S
C2469      C2470   1.399       .  A
C2469      C2474   1.394       .  A
C2469      H2476   1.084       .  S
C2470      C2471   1.416       .  A
C2471      C2472   1.399       .  A
C2471     Br2478   1.912       .  S
C2472      C2473   1.399       .  A
C2472      H2477   1.083       .  S
C2473      C2749   1.479   1_556  S
C2473      C2474   1.409       .  A
C2474     Br2475   1.905   1_556  S
C2479      C2480   1.407       .  A
C2479      C2484   1.400       .  A
C2479      H2486   1.082       .  S
C2480      C2481   1.413       .  A
C2481      C2482   1.412       .  A
C2481     Br2488   1.913       .  S
C2482      C2483   1.409       .  A
C2482      H2487   1.084       .  S
C2483      C2484   1.407       .  A
C2484     Br2485   1.914       .  S
C2489      C2490   1.381       .  A
C2489      C2494   1.383       .  A
C2489      H2496   1.086       .  S
C2490      C2491   1.397       .  A
C2491      C2492   1.403       .  A
C2491     Br2498   1.918   1_556  S
C2492      C2493   1.422       .  A
C2492      H2497   1.070   1_556  S
C2493      C2494   1.443       .  A
C2494     Br2495   1.922       .  S
C2499      C2500   1.408       .  A
C2499      C2504   1.410       .  A
C2499      H2506   1.083       .  S
C2500      C2501   1.416       .  A
C2501      C2502   1.395       .  A
C2501     Br2508   1.904       .  S
C2502      C2503   1.398       .  A
C2502      H2507   1.084       .  S
C2503      C2504   1.409       .  A
C2504     Br2505   1.895   1_556  S
C2509      C2510   1.405       .  A
C2509      C2514   1.408       .  A
C2509      H2516   1.083       .  S
C2510      C2511   1.403       .  A
C2511      C2512   1.383       .  A
C2511     Br2518   1.905       .  S
C2512      C2513   1.397       .  A
C2512      H2517   1.084       .  S
C2513      C2514   1.416       .  A
C2514     Br2515   1.910   1_556  S
C2519      C2520   1.401       .  A
C2519      C2524   1.403       .  A
C2519      H2526   1.076       .  S
C2520      C2521   1.400       .  A
C2521      C2522   1.397       .  A
C2521     Br2528   1.923       .  S
C2522      C2523   1.419       .  A
C2522      H2527   1.070   1_655  S
C2523      C2524   1.417       .  A
C2524     Br2525   1.916       .  S
C2529      C2530   1.402       .  A
C2529      C2534   1.395       .  A
C2529      H2536   1.075       .  S
C2530      C2531   1.407       .  A
C2531      C2532   1.402       .  A
C2532      C2533   1.407       .  A
C2532      H2537   1.080       .  S
C2533      C2534   1.408       .  A
C2534     Br2535   1.924       .  S
C2539      C2540   1.396       .  A
C2539      C2544   1.391       .  A
C2539      H2546   1.084       .  S
C2540      C2541   1.414       .  A
C2541      C2542   1.403       .  A
C2541     Br2548   1.914       .  S
C2542      C2543   1.409       .  A
C2542      H2547   1.081   1_556  S
C2543      C2753   1.521   1_556  S
C2543      C2544   1.433       .  A
C2544     Br2545   1.929       .  S
C2549      C2550   1.402       .  A
C2549      C2554   1.399       .  A
C2549      H2556   1.083       .  S
C2550      C2551   1.409       .  A
C2551      C2552   1.397       .  A
C2551     Br2558   1.914       .  S
C2552      C2553   1.404       .  A
C2552      H2557   1.084   1_655  S
C2553      C2554   1.415       .  A
C2554     Br2555   1.906   1_556  S
C2559      C2560   1.420       .  A
C2559      C2564   1.416       .  A
C2559      H2566   1.068       .  S
C2560      C2561   1.429       .  A
C2561      C2562   1.391       .  A
C2562      C2563   1.391       .  A
C2562      H2567   1.084       .  S
C2563      C2564   1.413       .  A
C2564     Br2565   1.919       .  S
O2569     Cr2587   1.999       .  S
O2569      C2577   1.261       .  A
O2570     Cr2587   1.978       .  S
O2570      C2571   1.256       .  A
C2571      O2572   1.266       .  A
C2571      C2968   1.488       .  S
O2572     Cr2588   1.999       .  S
O2573     Cr2588   1.995       .  S
O2573      C2574   1.259       .  A
C2574      O2575   1.267       .  A
C2574      C2991   1.498       .  S
O2575     Cr2589   2.008       .  S
O2576     Cr2589   1.978       .  S
O2576      C2577   1.259       .  A
C2577      C2978   1.481       .  S
O2578     Cr2587   1.975       .  S
O2578      C2586   1.261       .  A
O2579     Cr2587   2.005       .  S
O2579      C2580   1.265       .  A
C2580      O2581   1.261       .  A
C2580      C2652   1.465       .  S
O2581     Cr2588   1.979       .  S
O2582     Cr2588   2.008       .  S
O2582      C2583   1.268       .  A
C2583      O2584   1.261       .  A
C2583      C2693   1.463       .  S
O2584     Cr2589   1.972       .  S
O2585     Cr2589   2.017       .  S
O2585      C2586   1.269       .  A
C2586      C2602   1.469       .  S
Cr2587     O2590   1.781       .  S
Cr2588     O2590   1.777       .  S
Cr2589     O2590   1.770       .  S
O2591     Cr2609   2.002       .  S
O2591      C2599   1.258       .  A
O2592     Cr2609   1.982       .  S
O2592      C2593   1.257       .  A
C2593      O2594   1.263       .  A
C2593      C2961   1.482       .  S
O2594     Cr2610   1.993       .  S
O2595     Cr2610   1.981       .  S
O2595      C2596   1.258       .  A
C2596      O2597   1.264       .  A
C2596      C2948   1.481       .  S
O2597     Cr2611   2.013       .  S
O2598     Cr2611   1.973       .  S
O2598      C2599   1.257       .  A
C2599      C2938   1.474       .  S
O2600     Cr2609   1.976       .  S
O2600      C2608   1.262       .  A
O2601     Cr2609   2.009       .  S
O2601      C2602   1.266       .  A
C2602      O2603   1.260       .  A
O2603     Cr2610   1.979       .  S
O2604     Cr2610   2.003       .  S
O2604      C2605   1.265       .  A
C2605      O2606   1.264       .  A
C2605      C2737   1.472       .  S
O2606     Cr2611   1.985       .  S
O2607     Cr2611   2.022       .  S
O2607      C2608   1.272       .  A
C2608      C2624   1.473       .  S
Cr2609     O2612   1.790       .  S
Cr2610     O2612   1.778       .  S
Cr2611     O2612   1.777       .  S
O2613     Cr2631   2.027       .  S
O2613      C2621   1.268       .  A
O2614     Cr2631   1.972       .  S
O2614      C2615   1.253       .  A
C2615      O2616   1.261       .  A
C2615      C2918   1.462       .  S
O2616     Cr2632   1.989       .  S
O2617     Cr2632   1.992       .  S
O2617      C2618   1.260       .  A
C2618      O2619   1.271       .  A
C2618      C2911   1.495       .  S
O2619     Cr2633   2.025       .  S
O2620     Cr2633   1.979       .  S
O2620      C2621   1.259       .  A
C2621      C2928   1.499       .  S
O2622     Cr2631   1.962       .  S
O2622      C2630   1.256       .  A
O2623     Cr2631   2.022       .  S
O2623      C2624   1.272       .  A
C2624      O2625   1.264       .  A
O2625     Cr2632   1.980       .  S
O2626     Cr2632   2.018       .  S
O2626      C2627   1.268       .  A
C2627      O2628   1.262       .  A
C2627      C2715   1.483       .  S
O2628     Cr2633   1.992       .  S
O2629     Cr2633   2.022       .  S
O2629      C2630   1.271       .  A
C2630      C2646   1.467       .  S
Cr2631     O2634   1.784       .  S
Cr2632     O2634   1.775       .  S
Cr2633     O2634   1.772       .  S
O2635     Cr2653   1.997       .  S
O2635      C2643   1.261       .  A
O2636     Cr2653   1.984       .  S
O2636      C2637   1.255       .  A
C2637      O2638   1.266       .  A
C2637      C2878   1.486       .  S
O2638     Cr2654   1.995       .  S
O2639     Cr2654   1.988       .  S
O2639      C2640   1.257       .  A
C2640      O2641   1.259       .  A
C2640      C2888   1.492       .  S
O2641     Cr2655   1.998       .  S
O2642     Cr2655   1.980       .  S
O2642      C2643   1.258       .  A
C2643      C2898   1.467       .  S
O2644     Cr2653   1.979       .  S
O2644      C2652   1.263       .  A
O2645     Cr2653   2.010       .  S
O2645      C2646   1.269       .  A
C2646      O2647   1.261       .  A
O2647     Cr2654   1.974       .  S
O2648     Cr2654   2.026       .  S
O2648      C2649   1.273       .  A
C2649      O2650   1.264       .  A
C2649      C2671   1.478       .  S
O2650     Cr2655   1.982       .  S
O2651     Cr2655   2.006       .  S
O2651      C2652   1.266       .  A
Cr2653     O2656   1.778       .  S
Cr2654     O2656   1.770       .  S
Cr2655     O2656   1.771       .  S
O2657     Cr2675   2.002       .  S
O2657      C2665   1.260       .  A
O2658     Cr2675   1.969       .  S
O2658      C2659   1.256       .  A
C2659      O2660   1.262       .  A
C2659      C2858   1.463       .  S
O2660     Cr2676   1.993       .  S
O2661     Cr2676   1.986       .  S
O2661      C2662   1.256       .  A
C2662      O2663   1.260       .  A
C2662      C2868   1.482       .  S
O2663     Cr2677   1.981       .  S
O2664     Cr2677   1.985       .  S
O2664      C2665   1.257       .  A
C2665      C2848   1.487       .  S
O2666     Cr2675   1.982       .  S
O2666      C2674   1.261       .  A
O2667     Cr2675   2.001       .  S
O2667      C2668   1.264       .  A
C2668      O2669   1.263       .  A
C2668      C2696   1.467       .  S
O2669     Cr2676   1.983       .  S
O2670     Cr2676   2.014       .  S
O2670      C2671   1.269       .  A
C2671      O2672   1.266       .  A
O2672     Cr2677   1.988       .  S
O2673     Cr2677   2.015       .  S
O2673      C2674   1.271       .  A
C2674      C2712   1.475       .  S
Cr2675     O2678   1.780       .  S
Cr2676     O2678   1.779       .  S
Cr2677     O2678   1.769       .  S
O2679     Cr2697   2.011       .  S
O2679      C2687   1.265       .  A
O2680     Cr2697   1.983       .  S
O2680      C2681   1.256       .  A
C2681      O2682   1.267       .  A
C2681      C2818   1.494       .  S
O2682     Cr2698   2.006       .  S
O2683     Cr2698   1.989       .  S
O2683      C2684   1.261       .  A
C2684      O2685   1.258       .  A
C2684      C2838   1.497       .  S
O2685     Cr2699   2.005       .  S
O2686     Cr2699   1.972       .  S
O2686      C2687   1.259       .  A
C2687      C2828   1.488       .  S
O2688     Cr2697   1.983       .  S
O2688      C2696   1.262       .  A
O2689     Cr2697   2.026       .  S
O2689      C2690   1.271       .  A
C2690      O2691   1.263       .  A
C2690      C2740   1.487       .  S
O2691     Cr2698   1.989       .  S
O2692     Cr2698   2.013       .  S
O2692      C2693   1.271       .  A
C2693      O2694   1.261       .  A
O2694     Cr2699   1.969       .  S
O2695     Cr2699   2.002       .  S
O2695      C2696   1.264       .  A
Cr2697     O2700   1.781       .  S
Cr2698     O2700   1.773       .  S
Cr2699     O2700   1.782       .  S
O2701     Cr2719   1.997       .  S
O2701      C2709   1.259       .  A
O2702     Cr2719   1.991       .  S
O2702      C2703   1.257       .  A
C2703      O2704   1.254       .  A
C2703      C2791   1.459       .  S
O2704     Cr2720   1.958       .  S
O2705     Cr2720   1.999       .  S
O2705      C2706   1.262       .  A
C2706      O2707   1.262       .  A
C2706      C2808   1.484       .  S
O2707     Cr2721   1.996       .  S
O2708     Cr2721   1.999       .  S
O2708      C2709   1.263       .  A
C2709      C2801   1.494       .  S
O2710     Cr2719   2.004       .  S
O2710      C2718   1.266       .  A
O2711     Cr2719   1.999       .  S
O2711      C2712   1.266       .  A
C2712      O2713   1.263       .  A
O2713     Cr2720   1.991       .  S
O2714     Cr2720   1.992       .  S
O2714      C2715   1.263       .  A
C2715      O2716   1.268       .  A
O2716     Cr2721   2.016       .  S
O2717     Cr2721   2.001       .  S
O2717      C2718   1.267       .  A
C2718      C2734   1.481       .  S
Cr2719     O2722   1.786       .  S
Cr2720     O2722   1.776       .  S
Cr2721     O2722   1.774       .  S
O2723     Cr2741   2.003       .  S
O2723      C2731   1.261       .  A
O2724     Cr2741   1.979       .  S
O2724      C2725   1.257       .  A
C2725      O2726   1.260       .  A
C2725      C2758   1.483       .  S
O2726     Cr2742   1.996       .  S
O2727     Cr2742   1.993       .  S
O2727      C2728   1.257       .  A
C2728      O2729   1.269       .  A
C2728      C2781   1.488       .  S
O2729     Cr2743   2.024       .  S
O2730     Cr2743   1.983       .  S
O2730      C2731   1.259       .  A
C2731      C2768   1.486       .  S
O2732     Cr2741   1.986       .  S
O2732      C2740   1.266       .  A
O2733     Cr2741   2.021       .  S
O2733      C2734   1.272       .  A
C2734      O2735   1.263       .  A
O2735     Cr2742   1.987       .  S
O2736     Cr2742   2.011       .  S
O2736      C2737   1.267       .  A
C2737      O2738   1.263       .  A
O2738     Cr2743   1.981       .  S
O2739     Cr2743   2.033       .  S
O2739      C2740   1.275       .  A
Cr2741     O2744   1.777       .  S
Cr2742     O2744   1.780       .  S
Cr2743     O2744   1.771       .  S
C2745      C2746   1.393       .  D
C2746      C2811   1.544       .  S
C2747      C2748   1.404       .  D
C2748      C2908   1.520       .  S
C2749      C2750   1.401       .  D
C2749      C3349   1.549   1_554  S
C2750      C2798   1.496       .  S
C2751      C2752   1.380       .  D
C2751      C3359   1.504   1_554  S
C2752      C2788   1.502       .  S
C2753      C2754   1.388       .  D
C2753      C3369   1.486   1_554  S
C2754      C2761   1.511       .  S
C2755      C2756   1.380       .  D
C2755      C3309   1.517   1_554  S
C2756      C2851   1.501       .  S
C2757      C2758   1.405       .  A
C2757      C2762   1.399       .  A
C2757      H2764   1.083       .  S
C2758      C2759   1.409       .  A
C2759      C2760   1.392       .  A
C2759     Br2766   1.926       .  S
C2760      C2761   1.411       .  A
C2760      H2765   1.083       .  S
C2761      C2762   1.415       .  A
C2762     Br2763   1.911       .  S
C2767      C2768   1.405       .  A
C2767      C2772   1.397       .  A
C2767      H2774   1.084       .  S
C2768      C2769   1.414       .  A
C2769      C2770   1.401       .  A
C2769     Br2776   1.921       .  S
C2770      C2771   1.403       .  A
C2770      H2775   1.074       .  S
C2771      C2772   1.413       .  A
C2777      C2778   1.407       .  A
C2777      C2782   1.405       .  A
C2777      H2784   1.084       .  S
C2778      C2779   1.415       .  A
C2779      C2780   1.408       .  A
C2779     Br2786   1.916       .  S
C2780      C2781   1.404       .  A
C2780      H2785   1.084       .  S
C2781      C2782   1.402       .  A
C2782     Br2783   1.909       .  S
C2787      C2788   1.411       .  A
C2787      C2792   1.390       .  A
C2787      H2794   1.077       .  S
C2788      C2789   1.413       .  A
C2789      C2790   1.402       .  A
C2789     Br2796   1.914       .  S
C2790      C2791   1.402       .  A
C2790      H2795   1.081       .  S
C2791      C2792   1.395       .  A
C2792     Br2793   1.924       .  S
C2797      C2798   1.400       .  A
C2797      C2802   1.396       .  A
C2797      H2804   1.084       .  S
C2798      C2799   1.415       .  A
C2799      C2800   1.408       .  A
C2799     Br2806   1.919       .  S
C2800      C2801   1.409       .  A
C2800      H2805   1.080       .  S
C2801      C2802   1.412       .  A
C2802     Br2803   1.905       .  S
C2807      C2808   1.390       .  A
C2807      C2812   1.401       .  A
C2807      H2814   1.085       .  S
C2808      C2809   1.408       .  A
C2809      C2810   1.402       .  A
C2809     Br2816   1.912       .  S
C2810      C2811   1.417       .  A
C2810      H2815   1.078       .  S
C2811      C2812   1.428       .  A
C2812     Br2813   1.883       .  S
C2817      C2818   1.396       .  A
C2817      C2822   1.392       .  A
C2817      H2824   1.084       .  S
C2818      C2819   1.419       .  A
C2819      C2820   1.409       .  A
C2819     Br2826   1.911       .  S
C2820      C2821   1.407       .  A
C2820      H2825   1.082       .  S
C2821      C2822   1.415       .  A
C2827      C2828   1.403       .  A
C2827      C2832   1.394       .  A
C2827      H2834   1.084       .  S
C2828      C2829   1.413       .  A
C2829      C2830   1.402       .  A
C2829     Br2836   1.910       .  S
C2830      C2831   1.404       .  A
C2830      H2835   1.076       .  S
C2831      C2832   1.415       .  A
C2837      C2838   1.397       .  A
C2837      C2842   1.394       .  A
C2837      H2844   1.084       .  S
C2838      C2839   1.418       .  A
C2839      C2840   1.411       .  A
C2839     Br2846   1.916       .  S
C2840      C2841   1.411       .  A
C2840      H2845   1.077   1_565  S
C2841      C2842   1.422       .  A
C2847      C2848   1.411       .  A
C2847      C2852   1.402       .  A
C2847      H2854   1.083       .  S
C2848      C2849   1.415       .  A
C2849      C2850   1.397       .  A
C2849     Br2856   1.922       .  S
C2850      C2851   1.400       .  A
C2850      H2855   1.068       .  S
C2851      C2852   1.401       .  A
C2852     Br2853   1.914       .  S
C2857      C2858   1.394       .  A
C2857      C2862   1.401       .  A
C2857      H2864   1.079       .  S
C2858      C2859   1.388       .  A
C2859      C2860   1.389       .  A
C2859     Br2866   1.918       .  S
C2860      C2861   1.416       .  A
C2860      H2865   1.054       .  S
C2861      C2862   1.429       .  A
C2867      C2868   1.406       .  A
C2867      C2872   1.403       .  A
C2867      H2874   1.078       .  S
C2868      C2869   1.408       .  A
C2869      C2870   1.397       .  A
C2869     Br2876   1.923       .  S
C2870      C2871   1.409       .  A
C2870      H2875   1.081       .  S
C2871      C2872   1.414       .  A
C2877      C2878   1.393       .  A
C2877      C2882   1.384       .  A
C2877      H2884   1.084       .  S
C2878      C2879   1.415       .  A
C2879      C2880   1.408       .  A
C2879     Br2886   1.917       .  S
C2880      C2881   1.412       .  A
C2880      H2885   1.081       .  S
C2881      C3183   1.517       .  S
C2881      C2882   1.417       .  A
C2882     Br2883   1.893       .  S
C2887      C2888   1.408       .  A
C2887      C2892   1.403       .  A
C2887      H2894   1.083       .  S
C2888      C2889   1.413       .  A
C2889      C2890   1.401       .  A
C2889     Br2896   1.924       .  S
C2890      C2891   1.400       .  A
C2890      H2895   1.062   1_565  S
C2891      C2892   1.412       .  A
C2892     Br2893   1.906       .  S
C2897      C2898   1.399       .  A
C2897      C2902   1.394       .  A
C2897      H2904   1.084       .  S
C2898      C2899   1.416       .  A
C2899      C2900   1.399       .  A
C2899     Br2906   1.912       .  S
C2900      C2901   1.399       .  A
C2900      H2905   1.083       .  S
C2901      C2902   1.409       .  A
C2902     Br2903   1.905       .  S
C2907      C2908   1.407       .  A
C2907      C2912   1.400       .  A
C2907      H2914   1.082       .  S
C2908      C2909   1.413       .  A
C2909      C2910   1.412       .  A
C2909     Br2916   1.913       .  S
C2910      C2911   1.409       .  A
C2910      H2915   1.084       .  S
C2911      C2912   1.407       .  A
C2912     Br2913   1.914       .  S
C2917      C2918   1.381       .  A
C2917      C2922   1.383       .  A
C2917      H2924   1.086       .  S
C2918      C2919   1.397       .  A
C2919      C2920   1.403       .  A
C2919     Br2926   1.918       .  S
C2920      C2921   1.422       .  A
C2920      H2925   1.070       .  S
C2921      C3177   1.549       .  S
C2921      C2922   1.443       .  A
C2922     Br2923   1.922       .  S
C2927      C2928   1.408       .  A
C2927      C2932   1.410       .  A
C2927      H2934   1.083       .  S
C2928      C2929   1.416       .  A
C2929      C2930   1.395       .  A
C2929     Br2936   1.904       .  S
C2930      C2931   1.398       .  A
C2930      H2935   1.084       .  S
C2931      C3179   1.504       .  S
C2931      C2932   1.409       .  A
C2932     Br2933   1.895       .  S
C2937      C2938   1.405       .  A
C2937      C2942   1.408       .  A
C2937      H2944   1.083       .  S
C2938      C2939   1.403       .  A
C2939      C2940   1.383       .  A
C2939     Br2946   1.905       .  S
C2940      C2941   1.397       .  A
C2940      H2945   1.084       .  S
C2941      C3181   1.486       .  S
C2941      C2942   1.416       .  A
C2942     Br2943   1.910       .  S
C2947      C2948   1.401       .  A
C2947      C2952   1.403       .  A
C2947      H2954   1.076       .  S
C2948      C2949   1.400       .  A
C2949      C2950   1.397       .  A
C2949     Br2956   1.923       .  S
C2950      C2951   1.419       .  A
C2950      H2955   1.070   1_655  S
C2951      C2952   1.417       .  A
C2952     Br2953   1.916       .  S
C2957      C2958   1.402       .  A
C2957      C2962   1.395       .  A
C2957      H2964   1.075       .  S
C2958      C2959   1.407       .  A
C2959      C2960   1.402       .  A
C2959     Br3394   1.913       .  S
C2960      C2961   1.407       .  A
C2960      H2965   1.080       .  S
C2961      C2962   1.408       .  A
C2962     Br2963   1.924       .  S
Br2966     C3387   1.913   1_554  S
C2967      C2968   1.396       .  A
C2967      C2972   1.391       .  A
C2967      H2974   1.084       .  S
C2968      C2969   1.414       .  A
C2969      C2970   1.403       .  A
C2969     Br2976   1.914       .  S
C2970      C2971   1.409       .  A
C2970      H2975   1.081       .  S
C2971      C2972   1.433       .  A
C2972     Br2973   1.929   1_565  S
C2977      C2978   1.402       .  A
C2977      C2982   1.399       .  A
C2977      H2984   1.083       .  S
C2978      C2979   1.409       .  A
C2979      C2980   1.397       .  A
C2979     Br2986   1.914       .  S
C2980      C2981   1.404       .  A
C2980      H2985   1.084   1_655  S
C2981      C2982   1.415       .  A
C2982     Br2983   1.906       .  S
C2987      C2988   1.420       .  A
C2987      C2992   1.416       .  A
C2987      H2994   1.068   1_565  S
C2988      C2989   1.429       .  A
C2989      C2990   1.391       .  A
C2990      C2991   1.391       .  A
C2990      H2995   1.084       .  S
C2991      C2992   1.413       .  A
C2992     Br2993   1.919       .  S
O2997     Cr3015   1.999       .  S
O2997      C3005   1.261       .  A
O2998     Cr3015   1.978       .  S
O2998      C2999   1.256       .  A
C2999      O3000   1.266       .  A
C2999      C3396   1.488       .  S
O3000     Cr3016   1.999       .  S
O3001     Cr3016   1.995       .  S
O3001      C3002   1.259       .  A
C3002      O3003   1.267       .  A
C3002      C3419   1.498       .  S
O3003     Cr3017   2.008       .  S
O3004     Cr3017   1.978       .  S
O3004      C3005   1.259       .  A
C3005      C3406   1.481       .  S
O3006     Cr3015   1.975       .  S
O3006      C3014   1.261       .  A
O3007     Cr3015   2.005       .  S
O3007      C3008   1.265       .  A
C3008      O3009   1.261       .  A
C3008      C3080   1.465       .  S
O3009     Cr3016   1.979       .  S
O3010     Cr3016   2.008       .  S
O3010      C3011   1.268       .  A
C3011      O3012   1.261       .  A
C3011      C3121   1.463       .  S
O3012     Cr3017   1.972       .  S
O3013     Cr3017   2.017       .  S
O3013      C3014   1.269       .  A
C3014      C3030   1.469       .  S
Cr3015     O3018   1.781       .  S
Cr3016     O3018   1.777       .  S
Cr3017     O3018   1.770       .  S
O3019     Cr3037   2.002       .  S
O3019      C3027   1.258       .  A
O3020     Cr3037   1.982       .  S
O3020      C3021   1.257       .  A
C3021      O3022   1.263       .  A
C3021      C3389   1.482       .  S
O3022     Cr3038   1.993       .  S
O3023     Cr3038   1.981       .  S
O3023      C3024   1.258       .  A
C3024      O3025   1.264       .  A
C3024      C3376   1.481       .  S
O3025     Cr3039   2.013       .  S
O3026     Cr3039   1.973       .  S
O3026      C3027   1.257       .  A
C3027      C3366   1.474       .  S
O3028     Cr3037   1.976       .  S
O3028      C3036   1.262       .  A
O3029     Cr3037   2.009       .  S
O3029      C3030   1.266       .  A
C3030      O3031   1.260       .  A
O3031     Cr3038   1.979       .  S
O3032     Cr3038   2.003       .  S
O3032      C3033   1.265       .  A
C3033      O3034   1.264       .  A
C3033      C3165   1.472       .  S
O3034     Cr3039   1.985       .  S
O3035     Cr3039   2.022       .  S
O3035      C3036   1.272       .  A
C3036      C3052   1.473       .  S
Cr3037     O3040   1.790       .  S
Cr3038     O3040   1.778       .  S
Cr3039     O3040   1.777       .  S
O3041     Cr3059   2.027       .  S
O3041      C3049   1.268       .  A
O3042     Cr3059   1.972       .  S
O3042      C3043   1.253       .  A
C3043      O3044   1.261       .  A
C3043      C3346   1.462       .  S
O3044     Cr3060   1.989       .  S
O3045     Cr3060   1.992       .  S
O3045      C3046   1.260       .  A
C3046      O3047   1.271       .  A
C3046      C3339   1.495       .  S
O3047     Cr3061   2.025       .  S
O3048     Cr3061   1.979       .  S
O3048      C3049   1.259       .  A
C3049      C3356   1.499       .  S
O3050     Cr3059   1.962       .  S
O3050      C3058   1.256       .  A
O3051     Cr3059   2.022       .  S
O3051      C3052   1.272       .  A
C3052      O3053   1.264       .  A
O3053     Cr3060   1.980       .  S
O3054     Cr3060   2.018       .  S
O3054      C3055   1.268       .  A
C3055      O3056   1.262       .  A
C3055      C3143   1.483       .  S
O3056     Cr3061   1.992       .  S
O3057     Cr3061   2.022       .  S
O3057      C3058   1.271       .  A
C3058      C3074   1.467       .  S
Cr3059     O3062   1.784       .  S
Cr3060     O3062   1.775       .  S
Cr3061     O3062   1.772       .  S
O3063     Cr3081   1.997       .  S
O3063      C3071   1.261       .  A
O3064     Cr3081   1.984       .  S
O3064      C3065   1.255       .  A
C3065      O3066   1.266       .  A
C3065      C3306   1.486       .  S
O3066     Cr3082   1.995       .  S
O3067     Cr3082   1.988       .  S
O3067      C3068   1.257       .  A
C3068      O3069   1.259       .  A
C3068      C3316   1.492       .  S
O3069     Cr3083   1.998       .  S
O3070     Cr3083   1.980       .  S
O3070      C3071   1.258       .  A
C3071      C3326   1.467       .  S
O3072     Cr3081   1.979       .  S
O3072      C3080   1.263       .  A
O3073     Cr3081   2.010       .  S
O3073      C3074   1.269       .  A
C3074      O3075   1.261       .  A
O3075     Cr3082   1.974       .  S
O3076     Cr3082   2.026       .  S
O3076      C3077   1.273       .  A
C3077      O3078   1.264       .  A
C3077      C3099   1.478       .  S
O3078     Cr3083   1.982       .  S
O3079     Cr3083   2.006       .  S
O3079      C3080   1.266       .  A
Cr3081     O3084   1.778       .  S
Cr3082     O3084   1.770       .  S
Cr3083     O3084   1.771       .  S
O3085     Cr3103   2.002       .  S
O3085      C3093   1.260       .  A
O3086     Cr3103   1.969       .  S
O3086      C3087   1.256       .  A
C3087      O3088   1.262       .  A
C3087      C3286   1.463       .  S
O3088     Cr3104   1.993       .  S
O3089     Cr3104   1.986       .  S
O3089      C3090   1.256       .  A
C3090      O3091   1.260       .  A
C3090      C3296   1.482       .  S
O3091     Cr3105   1.981       .  S
O3092     Cr3105   1.985       .  S
O3092      C3093   1.257       .  A
C3093      C3276   1.487       .  S
O3094     Cr3103   1.982       .  S
O3094      C3102   1.261       .  A
O3095     Cr3103   2.001       .  S
O3095      C3096   1.264       .  A
C3096      O3097   1.263       .  A
C3096      C3124   1.467       .  S
O3097     Cr3104   1.983       .  S
O3098     Cr3104   2.014       .  S
O3098      C3099   1.269       .  A
C3099      O3100   1.266       .  A
O3100     Cr3105   1.988       .  S
O3101     Cr3105   2.015       .  S
O3101      C3102   1.271       .  A
C3102      C3140   1.475       .  S
Cr3103     O3106   1.780       .  S
Cr3104     O3106   1.779       .  S
Cr3105     O3106   1.769       .  S
O3107     Cr3125   2.011       .  S
O3107      C3115   1.265       .  A
O3108     Cr3125   1.983       .  S
O3108      C3109   1.256       .  A
C3109      O3110   1.267       .  A
C3109      C3246   1.494       .  S
O3110     Cr3126   2.006       .  S
O3111     Cr3126   1.989       .  S
O3111      C3112   1.261       .  A
C3112      O3113   1.258       .  A
C3112      C3266   1.497       .  S
O3113     Cr3127   2.005       .  S
O3114     Cr3127   1.972       .  S
O3114      C3115   1.259       .  A
C3115      C3256   1.488       .  S
O3116     Cr3125   1.983       .  S
O3116      C3124   1.262       .  A
O3117     Cr3125   2.026       .  S
O3117      C3118   1.271       .  A
C3118      O3119   1.263       .  A
C3118      C3168   1.487       .  S
O3119     Cr3126   1.989       .  S
O3120     Cr3126   2.013       .  S
O3120      C3121   1.271       .  A
C3121      O3122   1.261       .  A
O3122     Cr3127   1.969       .  S
O3123     Cr3127   2.002       .  S
O3123      C3124   1.264       .  A
Cr3125     O3128   1.781       .  S
Cr3126     O3128   1.773       .  S
Cr3127     O3128   1.782       .  S
O3129     Cr3147   1.997       .  S
O3129      C3137   1.259       .  A
O3130     Cr3147   1.991       .  S
O3130      C3131   1.257       .  A
C3131      O3132   1.254       .  A
C3131      C3219   1.459       .  S
O3132     Cr3148   1.958       .  S
O3133     Cr3148   1.999       .  S
O3133      C3134   1.262       .  A
C3134      O3135   1.262       .  A
C3134      C3236   1.484       .  S
O3135     Cr3149   1.996       .  S
O3136     Cr3149   1.999       .  S
O3136      C3137   1.263       .  A
C3137      C3229   1.494       .  S
O3138     Cr3147   2.004       .  S
O3138      C3146   1.266       .  A
O3139     Cr3147   1.999       .  S
O3139      C3140   1.266       .  A
C3140      O3141   1.263       .  A
O3141     Cr3148   1.991       .  S
O3142     Cr3148   1.992       .  S
O3142      C3143   1.263       .  A
C3143      O3144   1.268       .  A
O3144     Cr3149   2.016       .  S
O3145     Cr3149   2.001       .  S
O3145      C3146   1.267       .  A
C3146      C3162   1.481       .  S
Cr3147     O3150   1.786       .  S
Cr3148     O3150   1.776       .  S
Cr3149     O3150   1.774       .  S
O3151     Cr3169   2.003       .  S
O3151      C3159   1.261       .  A
O3152     Cr3169   1.979       .  S
O3152      C3153   1.257       .  A
C3153      O3154   1.260       .  A
C3153      C3186   1.483       .  S
O3154     Cr3170   1.996       .  S
O3155     Cr3170   1.993       .  S
O3155      C3156   1.257       .  A
C3156      O3157   1.269       .  A
C3156      C3209   1.488       .  S
O3157     Cr3171   2.024       .  S
O3158     Cr3171   1.983       .  S
O3158      C3159   1.259       .  A
C3159      C3196   1.486       .  S
O3160     Cr3169   1.986       .  S
O3160      C3168   1.266       .  A
O3161     Cr3169   2.021       .  S
O3161      C3162   1.272       .  A
C3162      O3163   1.263       .  A
O3163     Cr3170   1.987       .  S
O3164     Cr3170   2.011       .  S
O3164      C3165   1.267       .  A
C3165      O3166   1.263       .  A
O3166     Cr3171   1.981       .  S
O3167     Cr3171   2.033       .  S
O3167      C3168   1.275       .  A
Cr3169     O3172   1.777       .  S
Cr3170     O3172   1.780       .  S
Cr3171     O3172   1.771       .  S
C3173      C3174   1.393       .  D
C3174      C3239   1.544       .  S
C3175      C3176   1.404       .  D
C3176      C3336   1.520       .  S
C3177      C3178   1.401       .  D
C3178      C3226   1.496       .  S
C3179      C3180   1.380       .  D
C3180      C3216   1.502       .  S
C3181      C3182   1.388       .  D
C3182      C3189   1.511       .  S
C3183      C3184   1.380       .  D
C3184      C3279   1.501       .  S
C3185      C3186   1.405       .  A
C3185      C3190   1.399       .  A
C3185      H3192   1.083       .  S
C3186      C3187   1.409       .  A
C3187      C3188   1.392       .  A
C3187     Br3194   1.926       .  S
C3188      C3189   1.411       .  A
C3188      H3193   1.083       .  S
C3189      C3190   1.415       .  A
C3190     Br3191   1.911       .  S
C3195      C3196   1.405       .  A
C3195      C3200   1.397       .  A
C3195      H3202   1.084       .  S
C3196      C3197   1.414       .  A
C3197      C3198   1.401       .  A
C3197     Br3204   1.921       .  S
C3198      C3199   1.403       .  A
C3198      H3203   1.074       .  S
C3199      C3200   1.413       .  A
C3205      C3206   1.407       .  A
C3205      C3210   1.405       .  A
C3205      H3212   1.084       .  S
C3206      C3207   1.415       .  A
C3207      C3208   1.408       .  A
C3207     Br3214   1.916       .  S
C3208      C3209   1.404       .  A
C3208      H3213   1.084       .  S
C3209      C3210   1.402       .  A
C3210     Br3211   1.909       .  S
C3215      C3216   1.411       .  A
C3215      C3220   1.390       .  A
C3215      H3222   1.077       .  S
C3216      C3217   1.413       .  A
C3217      C3218   1.402       .  A
C3217     Br3224   1.914       .  S
C3218      C3219   1.402       .  A
C3218      H3223   1.081       .  S
C3219      C3220   1.395       .  A
C3220     Br3221   1.924       .  S
C3225      C3226   1.400       .  A
C3225      C3230   1.396       .  A
C3225      H3232   1.084       .  S
C3226      C3227   1.415       .  A
C3227      C3228   1.408       .  A
C3227     Br3234   1.919       .  S
C3228      C3229   1.409       .  A
C3228      H3233   1.080       .  S
C3229      C3230   1.412       .  A
C3230     Br3231   1.905       .  S
C3235      C3236   1.390       .  A
C3235      C3240   1.401       .  A
C3235      H3242   1.085       .  S
C3236      C3237   1.408       .  A
C3237      C3238   1.402       .  A
C3237     Br3244   1.912       .  S
C3238      C3239   1.417       .  A
C3238      H3243   1.078       .  S
C3239      C3240   1.428       .  A
C3240     Br3241   1.883       .  S
C3245      C3246   1.396       .  A
C3245      C3250   1.392       .  A
C3245      H3252   1.084       .  S
C3246      C3247   1.419       .  A
C3247      C3248   1.409       .  A
C3247     Br3254   1.911       .  S
C3248      C3249   1.407       .  A
C3248      H3253   1.082       .  S
C3249      C3250   1.415       .  A
C3255      C3256   1.403       .  A
C3255      C3260   1.394       .  A
C3255      H3262   1.084       .  S
C3256      C3257   1.413       .  A
C3257      C3258   1.402       .  A
C3257     Br3264   1.910       .  S
C3258      C3259   1.404       .  A
C3258      H3263   1.076       .  S
C3259      C3260   1.415       .  A
C3265      C3266   1.397       .  A
C3265      C3270   1.394       .  A
C3265      H3272   1.084       .  S
C3266      C3267   1.418       .  A
C3267      C3268   1.411       .  A
C3267     Br3274   1.916       .  S
C3268      C3269   1.411       .  A
C3268      H3273   1.077   1_565  S
C3269      C3270   1.422       .  A
C3275      C3276   1.411       .  A
C3275      C3280   1.402       .  A
C3275      H3282   1.083       .  S
C3276      C3277   1.415       .  A
C3277      C3278   1.397       .  A
C3277     Br3284   1.922       .  S
C3278      C3279   1.400       .  A
C3278      H3283   1.068       .  S
C3279      C3280   1.401       .  A
C3280     Br3281   1.914       .  S
C3285      C3286   1.394       .  A
C3285      C3290   1.401       .  A
C3285      H3292   1.079       .  S
C3286      C3287   1.388       .  A
C3287      C3288   1.389       .  A
C3287     Br3294   1.918       .  S
C3288      C3289   1.416       .  A
C3288      H3293   1.054       .  S
C3289      C3290   1.429       .  A
C3295      C3296   1.406       .  A
C3295      C3300   1.403       .  A
C3295      H3302   1.078       .  S
C3296      C3297   1.408       .  A
C3297      C3298   1.397       .  A
C3297     Br3304   1.923       .  S
C3298      C3299   1.409       .  A
C3298      H3303   1.081       .  S
C3299      C3300   1.414       .  A
C3305      C3306   1.393       .  A
C3305      C3310   1.384       .  A
C3305      H3312   1.084       .  S
C3306      C3307   1.415       .  A
C3307      C3308   1.408       .  A
C3307     Br3314   1.917       .  S
C3308      C3309   1.412       .  A
C3308      H3313   1.081   1_556  S
C3309      C3310   1.417       .  A
C3310     Br3311   1.893       .  S
C3315      C3316   1.408       .  A
C3315      C3320   1.403       .  A
C3315      H3322   1.083       .  S
C3316      C3317   1.413       .  A
C3317      C3318   1.401       .  A
C3317     Br3324   1.924       .  S
C3318      C3319   1.400       .  A
C3318      H3323   1.062   1_565  S
C3319      C3320   1.412       .  A
C3320     Br3321   1.906       .  S
C3325      C3326   1.399       .  A
C3325      C3330   1.394       .  A
C3325      H3332   1.084       .  S
C3326      C3327   1.416       .  A
C3327      C3328   1.399       .  A
C3327     Br3334   1.912       .  S
C3328      C3329   1.399       .  A
C3328      H3333   1.083       .  S
C3329      C3330   1.409       .  A
C3330     Br3331   1.905   1_556  S
C3335      C3336   1.407       .  A
C3335      C3340   1.400       .  A
C3335      H3342   1.082       .  S
C3336      C3337   1.413       .  A
C3337      C3338   1.412       .  A
C3337     Br3344   1.913       .  S
C3338      C3339   1.409       .  A
C3338      H3343   1.084       .  S
C3339      C3340   1.407       .  A
C3340     Br3341   1.914       .  S
C3345      C3346   1.381       .  A
C3345      C3350   1.383       .  A
C3345      H3352   1.086       .  S
C3346      C3347   1.397       .  A
C3347      C3348   1.403       .  A
C3347     Br3354   1.918   1_556  S
C3348      C3349   1.422       .  A
C3348      H3353   1.070   1_556  S
C3349      C3350   1.443       .  A
C3350     Br3351   1.922       .  S
C3355      C3356   1.408       .  A
C3355      C3360   1.410       .  A
C3355      H3362   1.083       .  S
C3356      C3357   1.416       .  A
C3357      C3358   1.395       .  A
C3357     Br3364   1.904       .  S
C3358      C3359   1.398       .  A
C3358      H3363   1.084       .  S
C3359      C3360   1.409       .  A
C3360     Br3361   1.895   1_556  S
C3365      C3366   1.405       .  A
C3365      C3370   1.408       .  A
C3365      H3372   1.083       .  S
C3366      C3367   1.403       .  A
C3367      C3368   1.383       .  A
C3367     Br3374   1.905       .  S
C3368      C3369   1.397       .  A
C3368      H3373   1.084       .  S
C3369      C3370   1.416       .  A
C3370     Br3371   1.910   1_556  S
C3375      C3376   1.401       .  A
C3375      C3380   1.403       .  A
C3375      H3382   1.076       .  S
C3376      C3377   1.400       .  A
C3377      C3378   1.397       .  A
C3377     Br3384   1.923       .  S
C3378      C3379   1.419       .  A
C3378      H3383   1.070   1_655  S
C3379      C3380   1.417       .  A
C3380     Br3381   1.916       .  S
C3385      C3386   1.402       .  A
C3385      C3390   1.395       .  A
C3385      H3392   1.075       .  S
C3386      C3387   1.407       .  A
C3387      C3388   1.402       .  A
C3388      C3389   1.407       .  A
C3388      H3393   1.080       .  S
C3389      C3390   1.408       .  A
C3390     Br3391   1.924       .  S
C3395      C3396   1.396       .  A
C3395      C3400   1.391       .  A
C3395      H3402   1.084       .  S
C3396      C3397   1.414       .  A
C3397      C3398   1.403       .  A
C3397     Br3404   1.914       .  S
C3398      C3399   1.409       .  A
C3398      H3403   1.081   1_556  S
C3399      C3400   1.433       .  A
C3400     Br3401   1.929   1_565  S
C3405      C3406   1.402       .  A
C3405      C3410   1.399       .  A
C3405      H3412   1.083       .  S
C3406      C3407   1.409       .  A
C3407      C3408   1.397       .  A
C3407     Br3414   1.914       .  S
C3408      C3409   1.404       .  A
C3408      H3413   1.084   1_655  S
C3409      C3410   1.415       .  A
C3410     Br3411   1.906   1_556  S
C3415      C3416   1.420       .  A
C3415      C3420   1.416       .  A
C3415      H3422   1.068   1_565  S
C3416      C3417   1.429       .  A
C3417      C3418   1.391       .  A
C3418      C3419   1.391       .  A
C3418      H3423   1.084       .  S
C3419      C3420   1.413       .  A
C3420     Br3421   1.919       .  S
