geometry optimzed in LAMMPS
_audit_creation_date              2020-11-30 
_audit_creation_method            'lammps2cif' 
_symmetry_space_group_name_H-M    'P1' 
_symmetry_Int_Tables_number       1 
_symmetry_cell_setting            triclinic 
loop_ 
_symmetry_equiv_pos_as_xyz 
  x,y,z 
_cell_length_a                    24.489824077783922 
_cell_length_b                    37.193939659726475 
_cell_length_c                    34.9691642011964 
_cell_angle_alpha                 90.02931139672273 
_cell_angle_beta                  90.44330835838825 
_cell_angle_gamma                 90.63344348694801 
loop_ 
_atom_site_label 
_atom_site_type_symbol 
_atom_site_fract_x 
_atom_site_fract_y 
_atom_site_fract_z 
_atom_site_charge 
C1          C  0.24991086  0.24968371  0.98019731     0.01170
C2          C  0.25051107  0.24969576  0.01913587     0.01170
O3          O  0.30307554  0.13127416  0.25055153    -0.57210
C4          C  0.14834333  0.11856808  0.24036035     0.75420
O5          O  0.21675967  0.11430392  0.13789978    -0.58360
C6          C  0.34851981  0.11822862  0.24096013     0.75390
C7          C  0.25219286  0.01961206  0.20213618     0.77790
Cd8        Cd  0.24829507  0.09722945  0.20336033     1.37460
O9          O  0.19460989  0.12332721  0.25596844    -0.57200
O10         O  0.24254570  0.03701816  0.23232817    -0.56010
C11         C  0.25180785  0.13921230  0.13379394     0.77750
O12         O  0.26001545  0.03786700  0.17213668    -0.58390
O13         O  0.14788390  0.10382793  0.20778463    -0.56840
O14         O  0.34769315  0.09494728  0.21453413    -0.56830
O15         O  0.28465054  0.14401700  0.16131341    -0.56000
O16         O  0.30652591  0.36755476  0.25010675    -0.57210
C17         C  0.15445010  0.37927125  0.24026297     0.75420
O18         O  0.26345305  0.46231703  0.17226667    -0.58360
C19         C  0.35258237  0.38011240  0.24025933     0.75390
C20         C  0.25196716  0.36107487  0.13308783     0.77790
Cd21       Cd  0.25335586  0.40241380  0.20315859     1.37460
O22         O  0.19998167  0.37880213  0.25755680    -0.57200
O23         O  0.28961574  0.35834407  0.15777194    -0.56010
C24         C  0.25368667  0.48021426  0.20213873     0.77750
O25         O  0.21591888  0.38422118  0.13988311    -0.58390
O26         O  0.15463664  0.39014508  0.20604952    -0.56840
O27         O  0.35278891  0.40331458  0.21375712    -0.56830
O28         O  0.24480308  0.46240939  0.23222158    -0.56000
O29         O  0.44514255  0.11627430  0.25059957    -0.57210
C30         C  0.09786306  0.12971704  0.25914521     0.75420
O31         O  0.99106246  0.21211706  0.32767141    -0.58360
C32         C  0.39966674  0.12972676  0.25950538     0.75390
C33         C  0.99948758  0.11187420  0.36768567     0.77790
Cd34       Cd  0.99926054  0.15223152  0.29691682     1.37460
O35         O  0.05129282  0.12446321  0.24406389    -0.57200
O36         O  0.45751078  0.11361362  0.34665306    -0.56010
C37         C  0.49904198  0.22995407  0.29742838     0.77750
O38         O  0.04059196  0.12987659  0.35688839    -0.58390
O39         O  0.09888399  0.14520266  0.29132409    -0.56840
O40         O  0.40034784  0.15371549  0.28518460    -0.56830
O41         O  0.00686030  0.21209902  0.26728440    -0.55990
O42         O  0.44935803  0.38048415  0.24815155    -0.57210
C43         C  0.10377244  0.36803385  0.25890085     0.75420
O44         O  0.03000185  0.36094249  0.36311510    -0.58360
C45         C  0.40336614  0.36838691  0.25863808     0.75390
C46         C  0.99972066  0.26935604  0.29710586     0.77790
Cd47       Cd  0.00343782  0.34696785  0.29550649     1.37470
O48         O  0.05846813  0.36852844  0.24137548    -0.57200
O49         O  0.50952316  0.28673267  0.26685273    -0.56010
C50         C  0.50275724  0.38959816  0.36460344     0.77750
O51         O  0.99097118  0.28765216  0.32688127    -0.58390
O52         O  0.10307466  0.35758265  0.29327322    -0.56840
O53         O  0.40337899  0.34580556  0.28573421    -0.56830
O54         O  0.97638307  0.39760474  0.33466793    -0.56000
C55         C  0.50068935  0.49948367  0.51922137     0.01170
C56         C  0.50169389  0.49954144  0.48025572     0.01170
O57         O  0.19830836  0.12632856  0.74464392    -0.57210
C58         C  0.35194043  0.12105075  0.75937441     0.75420
O59         O  0.27753244  0.11156205  0.86293000    -0.58360
C60         C  0.15214277  0.11710677  0.75761373     0.75390
C61         C  0.24916738  0.01973314  0.79613423     0.77790
Cd62       Cd  0.25212301  0.09747887  0.79526575     1.37470
O63         O  0.30580676  0.12653445  0.74425908    -0.57200
O64         O  0.25182505  0.03730396  0.76528272    -0.56010
C65         C  0.24871442  0.13947235  0.86494422     0.77750
O66         O  0.24742002  0.03786093  0.82666586    -0.58390
O67         O  0.35227381  0.10467398  0.79100938    -0.56840
O68         O  0.15190025  0.09794917  0.78757061    -0.56830
O69         O  0.22170570  0.14713872  0.83518984    -0.56000
O70         O  0.19086659  0.37321627  0.74571629    -0.57210
C71         C  0.34442493  0.38263148  0.75916520     0.75420
O72         O  0.25104058  0.46257507  0.82715241    -0.58360
C73         C  0.14521691  0.37812859  0.76128098     0.75390
C74         C  0.25033492  0.36068495  0.86600287     0.77790
Cd75       Cd  0.24550204  0.40255869  0.79648473     1.37460
O76         O  0.29801576  0.37461716  0.74525580    -0.57200
O77         O  0.27671703  0.35296740  0.83626568    -0.56010
C78         C  0.24818272  0.48031955  0.79640435     0.77750
O79         O  0.22171480  0.38871965  0.86409964    -0.58390
O80         O  0.34532158  0.40070151  0.78989939    -0.56840
O81         O  0.14566361  0.39423678  0.79309273    -0.56830
O82         O  0.24447145  0.46236210  0.76581256    -0.56000
O83         O  0.05516417  0.12015264  0.75216376    -0.57210
C84         C  0.40250762  0.13265260  0.74086174     0.75420
O85         O  0.49647748  0.21264799  0.67218248    -0.58360
C86         C  0.10144521  0.12864897  0.73906391     0.75390
C87         C  0.49536583  0.11065729  0.63337459     0.77790
Cd88       Cd  0.50164386  0.15262032  0.70307932     1.37460
O89         O  0.44878823  0.12585056  0.75534884    -0.57200
O90         O  0.46534605  0.10473483  0.66186890    -0.56010
C91         C  0.99831351  0.23044769  0.70297782     0.77750
O92         O  0.52872004  0.13672413  0.63659646    -0.58390
O93         O  0.40193690  0.14952458  0.70940460    -0.56840
O94         O  0.10186152  0.14805059  0.70941325    -0.56830
O95         O  0.50166263  0.21253392  0.73356291    -0.56000
O96         O  0.44105598  0.37781135  0.75530156    -0.57210
C97         C  0.09423555  0.36644855  0.74295703     0.75420
O98         O  0.99736444  0.28820271  0.67297587    -0.58360
C99         C  0.39472781  0.37105097  0.74077967     0.75390
C100        C  0.00142476  0.39170042  0.63725026     0.77790
Cd101      Cd  0.99406435  0.34767266  0.70518871     1.37470
O102        O  0.04846658  0.37256853  0.75805651    -0.57200
O103        O  0.02642827  0.39911395  0.66795972    -0.56010
C104        C  0.49671019  0.26986968  0.70340512     0.77750
O105        O  0.97213348  0.36344879  0.63759524    -0.58390
O106        O  0.09386266  0.35043194  0.71097764    -0.56840
O107        O  0.39395431  0.35344460  0.70985700    -0.56830
O108        O  0.99470016  0.28724609  0.73439985    -0.56000
C109        C  0.05023405  0.46115656  0.56499882    -0.19700
C110        C  0.00298837  0.46595437  0.54271131    -0.06260
C111        C  0.45701182  0.44339139  0.54934652     0.14600
C112        C  0.45887916  0.41823383  0.57931502    -0.19750
C113        C  0.00478255  0.41551109  0.60335499    -0.06270
C114        C  0.05167945  0.43672169  0.59544721     0.14590
C115        C  0.10339748  0.43417064  0.61897734    -0.23100
H116        H  0.08565770  0.47806111  0.55984145     0.15880
H117        H  0.42326008  0.40157434  0.58502427     0.15910
C118        C  0.40539782  0.44576368  0.52589727    -0.23050
H119        H  0.13686850  0.45099296  0.60695293     0.06120
H120        H  0.11747849  0.40591258  0.61966325     0.09350
H121        H  0.09619765  0.44383445  0.64851501     0.09350
H122        H  0.41301399  0.43583679  0.49668501     0.09330
H123        H  0.39035732  0.47365374  0.52483112     0.09330
H124        H  0.37220768  0.42867239  0.53785286     0.06110
C125        C  0.44902360  0.04175646  0.55929429    -0.19700
C126        C  0.49872290  0.03349224  0.54191142    -0.06260
C127        C  0.04571003  0.05435948  0.55124747     0.14600
C128        C  0.04216941  0.08129386  0.57922174    -0.19750
C129        C  0.49355344  0.08707417  0.59919050    -0.06270
C130        C  0.44573596  0.06797764  0.58795737     0.14590
C131        C  0.39104730  0.07478507  0.60598613    -0.23100
H132        H  0.41279191  0.02643932  0.55168985     0.15880
H133        H  0.07879820  0.09620561  0.58727931     0.15910
C134        C  0.10079728  0.04799989  0.53399597    -0.23050
H135        H  0.35769002  0.05947539  0.59141183     0.06120
H136        H  0.38127096  0.10380785  0.60402174     0.09350
H137        H  0.39144179  0.06620489  0.63635030     0.09350
H138        H  0.11413076  0.07227282  0.51795778     0.09330
H139        H  0.10060694  0.02485886  0.51437521     0.09330
H140        H  0.13101774  0.04245320  0.55702283     0.06110
C141        C  0.45565341  0.43589675  0.40180468    -0.19700
C142        C  0.50059783  0.41310046  0.39887117    -0.06260
C143        C  0.04214867  0.41493666  0.42730062     0.14600
C144        C  0.03887778  0.44103185  0.45641671    -0.19750
C145        C  0.49615135  0.46592782  0.45700120    -0.06270
C146        C  0.45239447  0.46166376  0.43065188     0.14590
C147        C  0.40053404  0.48294481  0.43278297    -0.23100
H148        H  0.42243994  0.43374358  0.38123491     0.15880
H149        H  0.07151429  0.44342226  0.47735331     0.15910
C150        C  0.09147732  0.39116613  0.42599951    -0.23050
H151        H  0.39787006  0.50159536  0.40808852     0.06120
H152        H  0.39740830  0.99813396  0.45979406     0.09350
H153        H  0.36478191  0.46429929  0.43200103     0.09350
H154        H  0.11334639  0.39528032  0.39861264     0.09330
H155        H  0.07868194  0.36257318  0.42869374     0.09330
H156        H  0.12060721  0.39724901  0.44969226     0.06110
C157        C  0.04920384  0.06742088  0.40605069    -0.19700
C158        C  0.00211180  0.08794837  0.40134166    -0.06260
C159        C  0.45834276  0.08323421  0.42703949     0.14600
C160        C  0.46231432  0.05712102  0.45597410    -0.19750
C161        C  0.50689418  0.03366503  0.45778342    -0.06270
C162        C  0.05191518  0.03998583  0.43330484     0.14590
C163        C  0.10345422  0.01825994  0.43429789    -0.23100
H164        H  0.08318935  0.07136913  0.38675636     0.15880
H165        H  0.42867559  0.05336728  0.47549097     0.15910
C166        C  0.40721055  0.10520191  0.42383335    -0.23050
H167        H  0.10829489  0.00400072  0.40665660     0.06120
H168        H  0.10423430  0.99823758  0.45745834     0.09350
H169        H  0.13911798  0.03651675  0.43887061     0.09350
H170        H  0.38588943  0.09925539  0.39639093     0.09330
H171        H  0.41780415  0.13426359  0.42527095     0.09330
H172        H  0.37825125  0.09902668  0.44727728     0.06110
C173        C  0.20313603  0.17244533  0.08264496    -0.19700
C174        C  0.25289994  0.16270038  0.09966058    -0.06260
C175        C  0.30208685  0.17759905  0.08541532     0.14600
C176        C  0.29978054  0.20369451  0.05659200    -0.19750
C177        C  0.24981113  0.21586224  0.04198396    -0.06270
C178        C  0.20087480  0.19903127  0.05421116     0.14590
C179        C  0.14554543  0.20899516  0.03889880    -0.23100
H180        H  0.16536330  0.16064555  0.09299516     0.15880
H181        H  0.33738735  0.21560143  0.04648108     0.15910
C182        C  0.35724122  0.16629282  0.10034138    -0.23050
H183        H  0.12002020  0.21931973  0.06250797     0.06120
H184        H  0.12530794  0.18486509  0.02625469     0.09350
H185        H  0.14779400  0.22975164  0.01648094     0.09350
H186        H  0.36107955  0.13664986  0.09807963     0.09330
H187        H  0.36262171  0.17477280  0.13055509     0.09330
H188        H  0.39106050  0.17877089  0.08382773     0.06110
C189        C  0.29986678  0.32571157  0.08389259    -0.19700
C190        C  0.25021968  0.33748366  0.09895797    -0.06260
C191        C  0.20065856  0.32379706  0.08344288     0.14600
C192        C  0.20236277  0.29685668  0.05538167    -0.19750
C193        C  0.25207080  0.28361214  0.04189759    -0.06270
C194        C  0.30145556  0.29944760  0.05517786     0.14590
C195        C  0.35656072  0.28911267  0.04034925    -0.23100
H196        H  0.33796940  0.33665729  0.09510702     0.15880
H197        H  0.16449523  0.28516616  0.04491504     0.15910
C198        C  0.14585952  0.33572984  0.09777098    -0.23050
H199        H  0.38149493  0.27764048  0.06392613     0.06120
H200        H  0.37777067  0.31332838  0.02895328     0.09350
H201        H  0.35375779  0.26928618  0.01698012     0.09350
H202        H  0.14074529  0.36488372  0.09220956     0.09330
H203        H  0.14266774  0.33037653  0.12890893     0.09330
H204        H  0.11166184  0.32125135  0.08320191     0.06110
C205        C  0.20135404  0.18564749  0.90250254    -0.19700
C206        C  0.24609623  0.16264783  0.89948852    -0.06260
C207        C  0.28760688  0.16428293  0.92792935     0.14600
C208        C  0.28473685  0.19049056  0.95688275    -0.19750
C209        C  0.24261409  0.21585505  0.95737296    -0.06270
C210        C  0.19875067  0.21184015  0.93105834     0.14590
C211        C  0.14831857  0.23461643  0.93181934    -0.23100
H212        H  0.16826101  0.18375727  0.88181570     0.15880
H213        H  0.31771579  0.19279218  0.97750754     0.15910
C214        C  0.33666635  0.14023473  0.92682596    -0.23050
H215        H  0.11154740  0.21692277  0.93319712     0.06120
H216        H  0.14608561  0.25115639  0.90544775     0.09350
H217        H  0.14687071  0.25249812  0.95688513     0.09350
H218        H  0.35893144  0.14430980  0.89959310     0.09330
H219        H  0.32347729  0.11170369  0.92939312     0.09330
H220        H  0.36563692  0.14607576  0.95068131     0.06110
C221        C  0.21469750  0.30887009  0.95692896    -0.19700
C222        C  0.25689296  0.28355681  0.95755013    -0.06260
C223        C  0.30071667  0.28783817  0.93173049     0.14600
C224        C  0.29806885  0.31435687  0.90352480    -0.19750
C225        C  0.25327583  0.33735020  0.90037027    -0.06270
C226        C  0.21177198  0.33538134  0.92832285     0.14590
C227        C  0.16263802  0.35938140  0.92700073    -0.23100
H228        H  0.18171891  0.30633563  0.97714709     0.15880
H229        H  0.33110277  0.31647776  0.88317353     0.15910
C230        C  0.35110426  0.26500439  0.93262572    -0.23050
H231        H  0.13368561  0.35326456  0.95047047     0.06120
H232        H  0.14037708  0.35556155  0.89948060     0.09350
H233        H  0.17574793  0.38789900  0.93007109     0.09350
H234        H  0.35331324  0.24887179  0.90597555     0.09330
H235        H  0.35250473  0.24671051  0.95734612     0.09330
H236        H  0.38790857  0.28264113  0.93472992     0.06110
C237        C  0.24991073  0.74968381  0.98019725     0.01170
C238        C  0.25051076  0.74969582  0.01913581     0.01170
O239        O  0.30307581  0.63127400  0.25055156    -0.57210
C240        C  0.14834383  0.61856818  0.24036010     0.75420
O241        O  0.21676015  0.61430374  0.13789953    -0.58360
C242        C  0.34852021  0.61822896  0.24095971     0.75390
C243        C  0.25219383  0.51961210  0.20213605     0.77790
Cd244      Cd  0.24829554  0.59722949  0.20336013     1.37460
O245        O  0.19461032  0.62332677  0.25596848    -0.57200
O246        O  0.24254639  0.53701817  0.23232800    -0.56010
C247        C  0.25180802  0.63921232  0.13379377     0.77750
O248        O  0.26001637  0.53786704  0.17213655    -0.58390
O249        O  0.14788447  0.60382853  0.20778413    -0.56840
O250        O  0.34769371  0.59494803  0.21453331    -0.56830
O251        O  0.28465051  0.64401726  0.16131331    -0.56000
O252        O  0.30652409  0.86755431  0.25010666    -0.57210
C253        C  0.15444825  0.87927151  0.24026332     0.75420
O254        O  0.26345138  0.96231694  0.17226675    -0.58360
C255        C  0.35258049  0.88011235  0.24025965     0.75390
C256        C  0.25196571  0.86107478  0.13308799     0.77790
Cd257      Cd  0.25335409  0.90241375  0.20315878     1.37460
O258        O  0.19997985  0.87880232  0.25755710    -0.57200
O259        O  0.28961435  0.85834418  0.15777208    -0.56010
C260        C  0.25368534  0.98021421  0.20213884     0.77750
O261        O  0.21591715  0.88422090  0.13988332    -0.58390
O262        O  0.15463477  0.89014529  0.20604985    -0.56840
O263        O  0.35278699  0.90331487  0.21375778    -0.56830
O264        O  0.24480177  0.96240938  0.23222172    -0.56000
O265        O  0.44514305  0.61627521  0.25059854    -0.57210
C266        C  0.09786356  0.62971719  0.25914493     0.75420
O267        O  0.99106157  0.71211708  0.32767112    -0.58360
C268        C  0.39966711  0.62972713  0.25950493     0.75390
C269        C  0.99948752  0.61187396  0.36768492     0.77790
Cd270      Cd  0.99926088  0.65223168  0.29691637     1.37460
O271        O  0.05129344  0.62446408  0.24406318    -0.57200
O272        O  0.45751191  0.61361166  0.34665101    -0.56010
C273        C  0.49904147  0.72995424  0.29742826     0.77750
O274        O  0.04059085  0.62987824  0.35688913    -0.58390
O275        O  0.09888435  0.64520211  0.29132418    -0.56840
O276        O  0.40034806  0.65371531  0.28518475    -0.56830
O277        O  0.00686058  0.71209936  0.26728428    -0.55990
O278        O  0.44935607  0.88048459  0.24815226    -0.57210
C279        C  0.10377058  0.86803420  0.25890126     0.75420
O280        O  0.02999937  0.86094234  0.36311574    -0.58360
C281        C  0.40336427  0.86838693  0.25863844     0.75390
C282        C  0.99971961  0.76935623  0.29710590     0.77790
Cd283      Cd  0.00343599  0.84696808  0.29550690     1.37470
O284        O  0.05846627  0.86852874  0.24137590    -0.57200
O285        O  0.50952228  0.78673302  0.26685291    -0.56010
C286        C  0.50275523  0.88959818  0.36460401     0.77750
O287        O  0.99096953  0.78765219  0.32688135    -0.58390
O288        O  0.10307281  0.85758308  0.29327366    -0.56840
O289        O  0.40337722  0.84580523  0.28573425    -0.56830
O290        O  0.97638142  0.89760500  0.33466842    -0.56000
C291        C  0.50068797  0.99948372  0.51922192     0.01170
C292        C  0.50169296  0.99954150  0.48025628     0.01170
O293        O  0.19830828  0.62632921  0.74464429    -0.57210
C294        C  0.35194040  0.62105049  0.75937405     0.75420
O295        O  0.27753259  0.61156224  0.86292982    -0.58360
C296        C  0.15214271  0.61710669  0.75761359     0.75390
C297        C  0.24916741  0.51973317  0.79613427     0.77790
Cd298      Cd  0.25212298  0.59747889  0.79526564     1.37470
O299        O  0.30580674  0.62653384  0.74425854    -0.57200
O300        O  0.25182510  0.53730395  0.76528273    -0.56010
C301        C  0.24871440  0.63947246  0.86494407     0.77750
O302        O  0.24742002  0.53786099  0.82666587    -0.58390
O303        O  0.35227377  0.60467419  0.79100930    -0.56840
O304        O  0.15190023  0.59794847  0.78757002    -0.56830
O305        O  0.22170546  0.64713870  0.83518975    -0.56000
O306        O  0.19086663  0.87321654  0.74571597    -0.57210
C307        C  0.34442494  0.88263121  0.75916529     0.75420
O308        O  0.25104056  0.96257503  0.82715233    -0.58360
C309        C  0.14521701  0.87812835  0.76128093     0.75390
C310        C  0.25033494  0.86068500  0.86600282     0.77790
Cd311      Cd  0.24550206  0.90255865  0.79648464     1.37460
O312        O  0.29801578  0.87461704  0.74525578    -0.57200
O313        O  0.27671711  0.85296744  0.83626567    -0.56010
C314        C  0.24818270  0.98031953  0.79640427     0.77750
O315        O  0.22171475  0.88871967  0.86409953    -0.58390
O316        O  0.34532158  0.90070118  0.78989951    -0.56840
O317        O  0.14566374  0.89423612  0.79309291    -0.56830
O318        O  0.24447145  0.96236209  0.76581248    -0.56000
O319        O  0.05516406  0.62015157  0.75216289    -0.57210
C320        C  0.40250759  0.63265226  0.74086131     0.75420
O321        O  0.49647738  0.71264776  0.67218220    -0.58360
C322        C  0.10144514  0.62864878  0.73906369     0.75390
C323        C  0.49536677  0.61065724  0.63337396     0.77790
Cd324      Cd  0.50164387  0.65262002  0.70307892     1.37460
O325        O  0.44878821  0.62585052  0.75534858    -0.57200
O326        O  0.46534605  0.60473498  0.66186783    -0.56010
C327        C  0.99831333  0.73044737  0.70297758     0.77750
O328        O  0.52872144  0.63672376  0.63659637    -0.58390
O329        O  0.40193688  0.64952390  0.70940396    -0.56840
O330        O  0.10186150  0.64805116  0.70941360    -0.56830
O331        O  0.50166237  0.71253353  0.73356264    -0.56000
O332        O  0.44105595  0.87781076  0.75530187    -0.57210
C333        C  0.09423565  0.86644822  0.74295704     0.75420
O334        O  0.99736447  0.78820248  0.67297583    -0.58360
C335        C  0.39472781  0.87105061  0.74077983     0.75390
C336        C  0.00142423  0.89170042  0.63725073     0.77790
Cd337      Cd  0.99406429  0.84767232  0.70518889     1.37470
O338        O  0.04846674  0.87256767  0.75805685    -0.57200
O339        O  0.02642694  0.89911423  0.66796043    -0.56010
C340        C  0.49671006  0.76986938  0.70340502     0.77750
O341        O  0.97213395  0.86344834  0.63759533    -0.58390
O342        O  0.09386268  0.85043207  0.71097739    -0.56840
O343        O  0.39395432  0.85344442  0.70985704    -0.56830
O344        O  0.99469991  0.78724566  0.73439980    -0.56000
C345        C  0.05023265  0.96115736  0.56499989    -0.19700
C346        C  0.00298728  0.96595448  0.54271189    -0.06260
C347        C  0.45701125  0.94339100  0.54934670     0.14600
C348        C  0.45887881  0.91823342  0.57931517    -0.19750
C349        C  0.00478183  0.91551125  0.60335557    -0.06270
C350        C  0.05167819  0.93672257  0.59544833     0.14590
C351        C  0.10339574  0.93417241  0.61897910    -0.23100
H352        H  0.08565583  0.97806249  0.55984290     0.15880
H353        H  0.42326009  0.90157349  0.58502411     0.15910
C354        C  0.40539741  0.94576293  0.52589720    -0.23050
H355        H  0.13686644  0.95099526  0.60695509     0.06120
H356        H  0.11747782  0.90591460  0.61966526     0.09350
H357        H  0.09619477  0.94383615  0.64851666     0.09350
H358        H  0.41301391  0.93583598  0.49668501     0.09330
H359        H  0.39035656  0.97365291  0.52483087     0.09330
H360        H  0.37220739  0.92867149  0.53785273     0.06110
C361        C  0.44902485  0.54175740  0.55929255    -0.19700
C362        C  0.49872458  0.53349225  0.54191079    -0.06260
C363        C  0.04571228  0.55435868  0.55124779     0.14600
C364        C  0.04217162  0.58129302  0.57922210    -0.19750
C365        C  0.49355487  0.58707423  0.59918980    -0.06270
C366        C  0.44573707  0.56797866  0.58795557     0.14590
C367        C  0.39104789  0.57478724  0.60598304    -0.23100
H368        H  0.41279282  0.52644102  0.55168724     0.15880
H369        H  0.07880068  0.59620407  0.58728051     0.15910
C370        C  0.10079985  0.54799843  0.53399711    -0.23050
H371        H  0.35769058  0.55947821  0.59140799     0.06120
H372        H  0.38127303  0.60381022  0.60401835     0.09350
H373        H  0.39144054  0.56620712  0.63634723     0.09350
H374        H  0.11413484  0.57227139  0.51795958     0.09330
H375        H  0.10060921  0.52485777  0.51437587     0.09330
H376        H  0.13101931  0.54245087  0.55702437     0.06110
C377        C  0.45565199  0.93589720  0.40180505    -0.19700
C378        C  0.50059590  0.91310045  0.39887178    -0.06260
C379        C  0.04214631  0.91493619  0.42730155     0.14600
C380        C  0.03887578  0.94103148  0.45641757    -0.19750
C381        C  0.49615006  0.96592793  0.45700173    -0.06270
C382        C  0.45239334  0.96166426  0.43065222     0.14590
C383        C  0.40053336  0.98294582  0.43278313    -0.23100
H384        H  0.42243869  0.93374437  0.38123510     0.15880
H385        H  0.07151213  0.94342160  0.47735432     0.15910
C386        C  0.09147425  0.89116499  0.42600086    -0.23050
H387        H  0.39786993  0.00159634  0.40808862     0.06120
H388        H  0.39740877  0.49813282  0.45979395     0.09350
H389        H  0.36478084  0.96430063  0.43200116     0.09350
H390        H  0.11334391  0.89527888  0.39861418     0.09330
H391        H  0.07867794  0.86257221  0.42869501     0.09330
H392        H  0.12060392  0.89724750  0.44969385     0.06110
C393        C  0.04920454  0.56742159  0.40605070    -0.19700
C394        C  0.00211174  0.58794818  0.40134090    -0.06260
C395        C  0.45834206  0.58323322  0.42703806     0.14600
C396        C  0.46231394  0.55712029  0.45597290    -0.19750
C397        C  0.50689461  0.53366500  0.45778285    -0.06270
C398        C  0.05191607  0.53998649  0.43330480     0.14590
C399        C  0.10345573  0.51826126  0.43429833    -0.23100
H400        H  0.08319048  0.57137048  0.38675687     0.15880
H401        H  0.42867492  0.55336617  0.47548943     0.15910
C402        C  0.40720882  0.60519977  0.42383084    -0.23050
H403        H  0.10829773  0.50400254  0.40665687     0.06120
H404        H  0.10423556  0.49823848  0.45745835     0.09350
H405        H  0.13911881  0.53651845  0.43887194     0.09350
H406        H  0.38588911  0.59925270  0.39638801     0.09330
H407        H  0.41780086  0.63426167  0.42526853     0.09330
H408        H  0.37824888  0.59902394  0.44727421     0.06110
C409        C  0.20313601  0.67244530  0.08264485    -0.19700
C410        C  0.25289997  0.66270037  0.09966039    -0.06260
C411        C  0.30208683  0.67759905  0.08541507     0.14600
C412        C  0.29978041  0.70369453  0.05659177    -0.19750
C413        C  0.24981094  0.71586226  0.04198383    -0.06270
C414        C  0.20087467  0.69903124  0.05421107     0.14590
C415        C  0.14554525  0.70899508  0.03889874    -0.23100
H416        H  0.16536332  0.66064549  0.09299510     0.15880
H417        H  0.33738718  0.71560147  0.04648081     0.15910
C418        C  0.35724124  0.66629281  0.10034103    -0.23050
H419        H  0.12002005  0.71931966  0.06250793     0.06120
H420        H  0.12530778  0.68486497  0.02625470     0.09350
H421        H  0.14779375  0.72975152  0.01648084     0.09350
H422        H  0.36107957  0.63664986  0.09807924     0.09330
H423        H  0.36262182  0.67477275  0.13055475     0.09330
H424        H  0.39106047  0.67877090  0.08382735     0.06110
C425        C  0.29986577  0.82571157  0.08389289    -0.19700
C426        C  0.25021853  0.83748359  0.09895810    -0.06260
C427        C  0.20065756  0.82379696  0.08344278     0.14600
C428        C  0.20236206  0.79685664  0.05538152    -0.19750
C429        C  0.25207022  0.78361217  0.04189760    -0.06270
C430        C  0.30145484  0.79944766  0.05517810     0.14590
C431        C  0.35656014  0.78911285  0.04034966    -0.23100
H432        H  0.33796828  0.83665731  0.09510746     0.15880
H433        H  0.16449462  0.78516611  0.04491471     0.15910
C434        C  0.14585837  0.83572967  0.09777067    -0.23050
H435        H  0.38149419  0.77764058  0.06392657     0.06120
H436        H  0.37777013  0.81332862  0.02895388     0.09350
H437        H  0.35375743  0.76928645  0.01698041     0.09350
H438        H  0.14074413  0.86488356  0.09220929     0.09330
H439        H  0.14266632  0.83037630  0.12890859     0.09330
H440        H  0.11166084  0.82125119  0.08320141     0.06110
C441        C  0.20135402  0.68564760  0.90250242    -0.19700
C442        C  0.24609624  0.66264798  0.89948835    -0.06260
C443        C  0.28760695  0.66428313  0.92792915     0.14600
C444        C  0.28473690  0.69049075  0.95688257    -0.19750
C445        C  0.24261406  0.71585518  0.95737283    -0.06270
C446        C  0.19875063  0.71184025  0.93105824     0.14590
C447        C  0.14831846  0.73461648  0.93181928    -0.23100
H448        H  0.16826095  0.68375736  0.88181561     0.15880
H449        H  0.31771586  0.69279238  0.97750734     0.15910
C450        C  0.33666648  0.64023498  0.92682572    -0.23050
H451        H  0.11154735  0.71692277  0.93319707     0.06120
H452        H  0.14608543  0.75115645  0.90544771     0.09350
H453        H  0.14687059  0.75249814  0.95688509     0.09350
H454        H  0.35893151  0.64431007  0.89959284     0.09330
H455        H  0.32347750  0.61170392  0.92939289     0.09330
H456        H  0.36563707  0.64607604  0.95068104     0.06110
C457        C  0.21469733  0.80887016  0.95692887    -0.19700
C458        C  0.25689286  0.78355694  0.95755014    -0.06260
C459        C  0.30071669  0.78783837  0.93173061     0.14600
C460        C  0.29806891  0.81435706  0.90352490    -0.19750
C461        C  0.25327582  0.83735030  0.90037026    -0.06270
C462        C  0.21177185  0.83538140  0.92832274     0.14590
C463        C  0.16263781  0.85938139  0.92700052    -0.23100
H464        H  0.18171866  0.80633567  0.97714693     0.15880
H465        H  0.33110291  0.81647799  0.88317370     0.15910
C466        C  0.35110437  0.76500467  0.93262598    -0.23050
H467        H  0.13368532  0.85326452  0.95047020     0.06120
H468        H  0.14037700  0.85556150  0.89948034     0.09350
H469        H  0.17574762  0.88789901  0.93007089     0.09350
H470        H  0.35331354  0.74887206  0.90597582     0.09330
H471        H  0.35250477  0.74671081  0.95734639     0.09330
H472        H  0.38790859  0.78264146  0.93473027     0.06110
C473        C  0.74991087  0.24968371  0.98019731     0.01170
C474        C  0.75051109  0.24969577  0.01913586     0.01170
O475        O  0.80307557  0.13127419  0.25055150    -0.57210
C476        C  0.64834335  0.11856807  0.24036034     0.75420
O477        O  0.71675971  0.11430393  0.13789977    -0.58360
C478        C  0.84851983  0.11822862  0.24096014     0.75390
C479        C  0.75219287  0.01961207  0.20213616     0.77790
Cd480      Cd  0.74829510  0.09722945  0.20336033     1.37460
O481        O  0.69460990  0.12332716  0.25596846    -0.57200
O482        O  0.74254568  0.03701816  0.23232814    -0.56010
C483        C  0.75180790  0.13921231  0.13379394     0.77750
O484        O  0.76001550  0.03786701  0.17213666    -0.58390
O485        O  0.64788394  0.10382798  0.20778459    -0.56840
O486        O  0.84769317  0.09494726  0.21453417    -0.56830
O487        O  0.78465058  0.14401701  0.16131341    -0.56000
O488        O  0.80652592  0.36755475  0.25010675    -0.57210
C489        C  0.65445010  0.37927125  0.24026297     0.75420
O490        O  0.76345306  0.46231703  0.17226667    -0.58360
C491        C  0.85258238  0.38011240  0.24025934     0.75390
C492        C  0.75196716  0.36107487  0.13308783     0.77790
Cd493      Cd  0.75335587  0.40241379  0.20315860     1.37460
O494        O  0.69998167  0.37880213  0.25755680    -0.57200
O495        O  0.78961574  0.35834407  0.15777194    -0.56010
C496        C  0.75368669  0.48021426  0.20213873     0.77750
O497        O  0.71591888  0.38422118  0.13988311    -0.58390
O498        O  0.65463664  0.39014509  0.20604953    -0.56840
O499        O  0.85278891  0.40331457  0.21375712    -0.56830
O500        O  0.74480309  0.46240939  0.23222158    -0.56000
O501        O  0.94514256  0.11627427  0.25059963    -0.57210
C502        C  0.59786308  0.12971703  0.25914519     0.75420
O503        O  0.49106241  0.21211705  0.32767138    -0.58360
C504        C  0.89966675  0.12972676  0.25950539     0.75390
C505        C  0.49948757  0.11187417  0.36768563     0.77790
Cd506      Cd  0.49926054  0.15223150  0.29691679     1.37460
O507        O  0.55129285  0.12446325  0.24406384    -0.57200
O508        O  0.95751072  0.11361377  0.34665320    -0.56010
C509        C  0.99904199  0.22995408  0.29742840     0.77750
O510        O  0.54059187  0.12987668  0.35688843    -0.58390
O511        O  0.59888399  0.14520259  0.29132410    -0.56840
O512        O  0.90034785  0.15371552  0.28518458    -0.56830
O513        O  0.50686031  0.21209901  0.26728438    -0.55990
O514        O  0.94935803  0.38048416  0.24815156    -0.57210
C515        C  0.60377243  0.36803385  0.25890085     0.75420
O516        O  0.53000184  0.36094248  0.36311510    -0.58360
C517        C  0.90336615  0.36838691  0.25863809     0.75390
C518        C  0.49972064  0.26935603  0.29710584     0.77790
Cd519      Cd  0.50343782  0.34696785  0.29550648     1.37470
O520        O  0.55846813  0.36852844  0.24137548    -0.57200
O521        O  0.00952316  0.28673267  0.26685275    -0.56010
C522        C  0.00275724  0.38959817  0.36460344     0.77750
O523        O  0.49097115  0.28765215  0.32688126    -0.58390
O524        O  0.60307466  0.35758264  0.29327322    -0.56840
O525        O  0.90337900  0.34580556  0.28573421    -0.56830
O526        O  0.47638307  0.39760474  0.33466793    -0.56000
C527        C  0.00068935  0.49948368  0.51922137     0.01170
C528        C  0.00169388  0.49954145  0.48025572     0.01170
O529        O  0.69830836  0.12632856  0.74464393    -0.57210
C530        C  0.85194042  0.12105076  0.75937443     0.75420
O531        O  0.77753244  0.11156205  0.86293001    -0.58360
C532        C  0.65214276  0.11710675  0.75761373     0.75390
C533        C  0.74916739  0.01973314  0.79613424     0.77790
Cd534      Cd  0.75212301  0.09747887  0.79526576     1.37470
O535        O  0.80580675  0.12653448  0.74425910    -0.57200
O536        O  0.75182507  0.03730396  0.76528272    -0.56010
C537        C  0.74871441  0.13947235  0.86494423     0.77750
O538        O  0.74742001  0.03786093  0.82666587    -0.58390
O539        O  0.85227381  0.10467397  0.79100939    -0.56840
O540        O  0.65190025  0.09794915  0.78757060    -0.56830
O541        O  0.72170568  0.14713871  0.83518985    -0.56000
O542        O  0.69086658  0.37321626  0.74571628    -0.57210
C543        C  0.84442493  0.38263149  0.75916520     0.75420
O544        O  0.75104056  0.46257507  0.82715240    -0.58360
C545        C  0.64521690  0.37812858  0.76128098     0.75390
C546        C  0.75033492  0.36068495  0.86600286     0.77790
Cd547      Cd  0.74550203  0.40255869  0.79648472     1.37460
O548        O  0.79801576  0.37461716  0.74525579    -0.57200
O549        O  0.77671702  0.35296740  0.83626567    -0.56010
C550        C  0.74818270  0.48031955  0.79640433     0.77750
O551        O  0.72171479  0.38871965  0.86409964    -0.58390
O552        O  0.84532157  0.40070152  0.78989938    -0.56840
O553        O  0.64566360  0.39423676  0.79309272    -0.56830
O554        O  0.74447143  0.46236210  0.76581255    -0.56000
O555        O  0.55516417  0.12015260  0.75216374    -0.57210
C556        C  0.90250761  0.13265263  0.74086177     0.75420
O557        O  0.99647750  0.21264801  0.67218250    -0.58360
C558        C  0.60144521  0.12864896  0.73906390     0.75390
C559        C  0.99536575  0.11065730  0.63337462     0.77790
Cd560      Cd  0.00164385  0.15262034  0.70307935     1.37460
O561        O  0.94878822  0.12585058  0.75534886    -0.57200
O562        O  0.96534605  0.10473483  0.66186896    -0.56010
C563        C  0.49831351  0.23044767  0.70297780     0.77750
O564        O  0.02871992  0.13672416  0.63659645    -0.58390
O565        O  0.90193689  0.14952462  0.70940463    -0.56840
O566        O  0.60186153  0.14805059  0.70941325    -0.56830
O567        O  0.00166262  0.21253394  0.73356293    -0.56000
O568        O  0.94105598  0.37781138  0.75530155    -0.57210
C569        C  0.59423554  0.36644854  0.74295703     0.75420
O570        O  0.49736442  0.28820270  0.67297586    -0.58360
C571        C  0.89472781  0.37105098  0.74077967     0.75390
C572        C  0.50142476  0.39170040  0.63725026     0.77790
Cd573      Cd  0.49406434  0.34767264  0.70518870     1.37470
O574        O  0.54846657  0.37256851  0.75805651    -0.57200
O575        O  0.52642827  0.39911393  0.66795972    -0.56010
C576        C  0.99671020  0.26986971  0.70340514     0.77750
O577        O  0.47213347  0.36344878  0.63759524    -0.58390
O578        O  0.59386266  0.35043193  0.71097763    -0.56840
O579        O  0.89395432  0.35344461  0.70985700    -0.56830
O580        O  0.49470016  0.28724606  0.73439984    -0.56000
C581        C  0.55023405  0.46115655  0.56499882    -0.19700
C582        C  0.50298837  0.46595436  0.54271132    -0.06260
C583        C  0.95701182  0.44339140  0.54934652     0.14600
C584        C  0.95887916  0.41823384  0.57931502    -0.19750
C585        C  0.50478255  0.41551107  0.60335499    -0.06270
C586        C  0.55167945  0.43672168  0.59544722     0.14590
C587        C  0.60339748  0.43417063  0.61897734    -0.23100
H588        H  0.58565770  0.47806111  0.55984146     0.15880
H589        H  0.92326008  0.40157436  0.58502427     0.15910
C590        C  0.90539782  0.44576370  0.52589727    -0.23050
H591        H  0.63686850  0.45099295  0.60695294     0.06120
H592        H  0.61747849  0.40591257  0.61966326     0.09350
H593        H  0.59619764  0.44383444  0.64851502     0.09350
H594        H  0.91301399  0.43583680  0.49668501     0.09330
H595        H  0.89035732  0.47365375  0.52483113     0.09330
H596        H  0.87220768  0.42867241  0.53785287     0.06110
C597        C  0.94902351  0.04175641  0.55929440    -0.19700
C598        C  0.99872278  0.03349225  0.54191145    -0.06260
C599        C  0.54571018  0.05435942  0.55124750     0.14600
C600        C  0.54216956  0.08129380  0.57922177    -0.19750
C601        C  0.99355333  0.08707418  0.59919054    -0.06270
C602        C  0.94573588  0.06797759  0.58795749     0.14590
C603        C  0.89104725  0.07478494  0.60598632    -0.23100
H604        H  0.91279183  0.02643922  0.55169001     0.15880
H605        H  0.57879837  0.09620550  0.58727939     0.15910
C606        C  0.60079745  0.04799979  0.53399604    -0.23050
H607        H  0.85768997  0.05947521  0.59141207     0.06120
H608        H  0.88127081  0.10380770  0.60402195     0.09350
H609        H  0.89144186  0.06620475  0.63635050     0.09350
H610        H  0.61413102  0.07227272  0.51795790     0.09330
H611        H  0.60060709  0.02485878  0.51437525     0.09330
H612        H  0.63101785  0.04245304  0.55702293     0.06110
C613        C  0.95565341  0.43589676  0.40180468    -0.19700
C614        C  0.00059782  0.41310047  0.39887117    -0.06260
C615        C  0.54214868  0.41493665  0.42730061     0.14600
C616        C  0.53887778  0.44103184  0.45641671    -0.19750
C617        C  0.99615134  0.46592783  0.45700120    -0.06270
C618        C  0.95239447  0.46166377  0.43065188     0.14590
C619        C  0.90053403  0.48294482  0.43278297    -0.23100
H620        H  0.92243994  0.43374358  0.38123491     0.15880
H621        H  0.57151429  0.44342225  0.47735331     0.15910
C622        C  0.59147732  0.39116612  0.42599950    -0.23050
H623        H  0.89787005  0.50159537  0.40808852     0.06120
H624        H  0.89740827  0.99813404  0.45979404     0.09350
H625        H  0.86478190  0.46429930  0.43200103     0.09350
H626        H  0.61334639  0.39528032  0.39861264     0.09330
H627        H  0.57868194  0.36257317  0.42869373     0.09330
H628        H  0.62060722  0.39724900  0.44969226     0.06110
C629        C  0.54920388  0.06742091  0.40605069    -0.19700
C630        C  0.50211179  0.08794835  0.40134161    -0.06260
C631        C  0.95834280  0.08323428  0.42703958     0.14600
C632        C  0.96231433  0.05712107  0.45597417    -0.19750
C633        C  0.00689415  0.03366504  0.45778345    -0.06270
C634        C  0.55191524  0.03998586  0.43330484     0.14590
C635        C  0.60345431  0.01826001  0.43429792    -0.23100
H636        H  0.58318941  0.07136920  0.38675639     0.15880
H637        H  0.92867563  0.05336735  0.47549105     0.15910
C638        C  0.90721066  0.10520206  0.42383350    -0.23050
H639        H  0.60829506  0.00400082  0.40665662     0.06120
H640        H  0.60423438  0.99823762  0.45745835     0.09350
H641        H  0.63911803  0.03651684  0.43887069     0.09350
H642        H  0.88588945  0.09925557  0.39639110     0.09330
H643        H  0.91780435  0.13426372  0.42527110     0.09330
H644        H  0.87825140  0.09902686  0.44727746     0.06110
C645        C  0.70313607  0.17244533  0.08264495    -0.19700
C646        C  0.75289998  0.16270039  0.09966057    -0.06260
C647        C  0.80208689  0.17759907  0.08541532     0.14600
C648        C  0.79978057  0.20369453  0.05659200    -0.19750
C649        C  0.74981116  0.21586225  0.04198396    -0.06270
C650        C  0.70087483  0.19903127  0.05421116     0.14590
C651        C  0.64554546  0.20899516  0.03889879    -0.23100
H652        H  0.66536334  0.16064555  0.09299516     0.15880
H653        H  0.83738738  0.21560146  0.04648109     0.15910
C654        C  0.85724126  0.16629284  0.10034138    -0.23050
H655        H  0.62002022  0.21931972  0.06250797     0.06120
H656        H  0.62530798  0.18486508  0.02625469     0.09350
H657        H  0.64779403  0.22975164  0.01648094     0.09350
H658        H  0.86107960  0.13664989  0.09807963     0.09330
H659        H  0.86262175  0.17477283  0.13055509     0.09330
H660        H  0.89106054  0.17877092  0.08382773     0.06110
C661        C  0.79986679  0.32571159  0.08389259    -0.19700
C662        C  0.75021969  0.33748366  0.09895796    -0.06260
C663        C  0.70065857  0.32379706  0.08344288     0.14600
C664        C  0.70236279  0.29685668  0.05538167    -0.19750
C665        C  0.75207081  0.28361215  0.04189758    -0.06270
C666        C  0.80145557  0.29944761  0.05517785     0.14590
C667        C  0.85656073  0.28911270  0.04034924    -0.23100
H668        H  0.83796941  0.33665730  0.09510701     0.15880
H669        H  0.66449524  0.28516616  0.04491504     0.15910
C670        C  0.64585953  0.33572983  0.09777099    -0.23050
H671        H  0.88149495  0.27764051  0.06392611     0.06120
H672        H  0.87777067  0.31332841  0.02895327     0.09350
H673        H  0.85375780  0.26928620  0.01698010     0.09350
H674        H  0.64074529  0.36488371  0.09220957     0.09330
H675        H  0.64266775  0.33037652  0.12890894     0.09330
H676        H  0.61166185  0.32125135  0.08320191     0.06110
C677        C  0.70135404  0.18564749  0.90250255    -0.19700
C678        C  0.74609622  0.16264783  0.89948852    -0.06260
C679        C  0.78760688  0.16428293  0.92792935     0.14600
C680        C  0.78473686  0.19049057  0.95688275    -0.19750
C681        C  0.74261409  0.21585506  0.95737296    -0.06270
C682        C  0.69875067  0.21184015  0.93105835     0.14590
C683        C  0.64831857  0.23461644  0.93181935    -0.23100
H684        H  0.66826100  0.18375727  0.88181572     0.15880
H685        H  0.81771580  0.19279219  0.97750754     0.15910
C686        C  0.83666635  0.14023474  0.92682597    -0.23050
H687        H  0.61154740  0.21692278  0.93319713     0.06120
H688        H  0.64608561  0.25115639  0.90544775     0.09350
H689        H  0.64687071  0.25249813  0.95688513     0.09350
H690        H  0.85893143  0.14430980  0.89959310     0.09330
H691        H  0.82347729  0.11170369  0.92939313     0.09330
H692        H  0.86563692  0.14607576  0.95068131     0.06110
C693        C  0.71469750  0.30887009  0.95692896    -0.19700
C694        C  0.75689297  0.28355681  0.95755013    -0.06260
C695        C  0.80071667  0.28783818  0.93173048     0.14600
C696        C  0.79806884  0.31435688  0.90352479    -0.19750
C697        C  0.75327583  0.33735020  0.90037027    -0.06270
C698        C  0.71177198  0.33538134  0.92832284     0.14590
C699        C  0.66263801  0.35938140  0.92700073    -0.23100
H700        H  0.68171892  0.30633564  0.97714709     0.15880
H701        H  0.83110276  0.31647776  0.88317352     0.15910
C702        C  0.85110426  0.26500440  0.93262571    -0.23050
H703        H  0.63368561  0.35326456  0.95047047     0.06120
H704        H  0.64037708  0.35556155  0.89948060     0.09350
H705        H  0.67574793  0.38789901  0.93007109     0.09350
H706        H  0.85331324  0.24887179  0.90597554     0.09330
H707        H  0.85250474  0.24671052  0.95734611     0.09330
H708        H  0.88790857  0.28264113  0.93472991     0.06110
C709        C  0.74991072  0.74968380  0.98019724     0.01170
C710        C  0.75051076  0.74969581  0.01913580     0.01170
O711        O  0.80307581  0.63127401  0.25055156    -0.57210
C712        C  0.64834384  0.61856817  0.24036010     0.75420
O713        O  0.71676016  0.61430373  0.13789952    -0.58360
C714        C  0.84852022  0.61822896  0.24095971     0.75390
C715        C  0.75219385  0.51961210  0.20213605     0.77790
Cd716      Cd  0.74829555  0.59722949  0.20336012     1.37460
O717        O  0.69461033  0.62332676  0.25596848    -0.57200
O718        O  0.74254641  0.53701817  0.23232799    -0.56010
C719        C  0.75180803  0.63921232  0.13379376     0.77750
O720        O  0.76001639  0.53786704  0.17213655    -0.58390
O721        O  0.64788448  0.60382852  0.20778412    -0.56840
O722        O  0.84769372  0.59494803  0.21453331    -0.56830
O723        O  0.78465051  0.64401726  0.16131331    -0.56000
O724        O  0.80652408  0.86755432  0.25010663    -0.57210
C725        C  0.65444826  0.87927151  0.24026328     0.75420
O726        O  0.76345141  0.96231695  0.17226673    -0.58360
C727        C  0.85258048  0.88011236  0.24025964     0.75390
C728        C  0.75196572  0.86107479  0.13308796     0.77790
Cd729      Cd  0.75335409  0.90241376  0.20315875     1.37460
O730        O  0.69997987  0.87880229  0.25755705    -0.57200
O731        O  0.78961438  0.85834422  0.15777203    -0.56010
C732        C  0.75368535  0.98021422  0.20213881     0.77750
O733        O  0.71591714  0.88422089  0.13988330    -0.58390
O734        O  0.65463477  0.89014532  0.20604982    -0.56840
O735        O  0.85278698  0.90331489  0.21375777    -0.56830
O736        O  0.74480174  0.96240938  0.23222168    -0.56000
O737        O  0.94514305  0.61627522  0.25059854    -0.57210
C738        C  0.59786357  0.62971717  0.25914492     0.75420
O739        O  0.49106158  0.71211707  0.32767111    -0.58360
C740        C  0.89966711  0.62972715  0.25950493     0.75390
C741        C  0.49948753  0.61187395  0.36768492     0.77790
Cd742      Cd  0.49926089  0.65223166  0.29691636     1.37460
O743        O  0.55129345  0.62446406  0.24406317    -0.57200
O744        O  0.95751189  0.61361169  0.34665103    -0.56010
C745        C  0.99904145  0.72995426  0.29742827     0.77750
O746        O  0.54059085  0.62987824  0.35688913    -0.58390
O747        O  0.59888435  0.64520208  0.29132418    -0.56840
O748        O  0.90034805  0.65371532  0.28518474    -0.56830
O749        O  0.50686059  0.71209934  0.26728426    -0.55990
O750        O  0.94935605  0.88048462  0.24815229    -0.57210
C751        C  0.60377060  0.86803419  0.25890122     0.75420
O752        O  0.52999948  0.86094234  0.36311570    -0.58360
C753        C  0.90336425  0.86838695  0.25863844     0.75390
C754        C  0.49971963  0.76935621  0.29710588     0.77790
Cd755      Cd  0.50343603  0.84696806  0.29550688     1.37470
O756        O  0.55846628  0.86852875  0.24137587    -0.57200
O757        O  0.00952226  0.78673304  0.26685293    -0.56010
C758        C  0.00275516  0.88959819  0.36460404     0.77750
O759        O  0.49096956  0.78765217  0.32688133    -0.58390
O760        O  0.60307284  0.85758304  0.29327362    -0.56840
O761        O  0.90337719  0.84580524  0.28573424    -0.56830
O762        O  0.47638145  0.89760497  0.33466840    -0.56000
C763        C  0.00068787  0.99948373  0.51922195     0.01170
C764        C  0.00169289  0.99954151  0.48025631     0.01170
O765        O  0.69830828  0.62632920  0.74464427    -0.57210
C766        C  0.85194040  0.62105049  0.75937405     0.75420
O767        O  0.77753258  0.61156223  0.86292981    -0.58360
C768        C  0.65214270  0.61710669  0.75761358     0.75390
C769        C  0.74916739  0.51973316  0.79613425     0.77790
Cd770      Cd  0.75212298  0.59747888  0.79526562     1.37470
O771        O  0.80580675  0.62653385  0.74425854    -0.57200
O772        O  0.75182508  0.53730394  0.76528271    -0.56010
C773        C  0.74871439  0.63947245  0.86494406     0.77750
O774        O  0.74742001  0.53786099  0.82666586    -0.58390
O775        O  0.85227377  0.60467417  0.79100928    -0.56840
O776        O  0.65190023  0.59794847  0.78757001    -0.56830
O777        O  0.72170546  0.64713869  0.83518974    -0.56000
O778        O  0.69086663  0.87321653  0.74571598    -0.57210
C779        C  0.84442493  0.88263120  0.75916530     0.75420
O780        O  0.75104054  0.96257503  0.82715233    -0.58360
C781        C  0.64521700  0.87812835  0.76128094     0.75390
C782        C  0.75033492  0.86068500  0.86600282     0.77790
Cd783      Cd  0.74550205  0.90255865  0.79648465     1.37460
O784        O  0.79801576  0.87461705  0.74525578    -0.57200
O785        O  0.77671710  0.85296744  0.83626567    -0.56010
C786        C  0.74818271  0.98031953  0.79640428     0.77750
O787        O  0.72171473  0.88871967  0.86409953    -0.58390
O788        O  0.84532157  0.90070117  0.78989953    -0.56840
O789        O  0.64566373  0.89423614  0.79309291    -0.56830
O790        O  0.74447147  0.96236209  0.76581248    -0.56000
O791        O  0.55516406  0.62015157  0.75216288    -0.57210
C792        C  0.90250760  0.63265226  0.74086131     0.75420
O793        O  0.99647738  0.71264776  0.67218220    -0.58360
C794        C  0.60144514  0.62864878  0.73906368     0.75390
C795        C  0.99536677  0.61065725  0.63337396     0.77790
Cd796      Cd  0.00164387  0.65262002  0.70307892     1.37460
O797        O  0.94878821  0.62585050  0.75534858    -0.57200
O798        O  0.96534603  0.60473500  0.66186782    -0.56010
C799        C  0.49831333  0.73044736  0.70297758     0.77750
O800        O  0.02872147  0.63672376  0.63659638    -0.58390
O801        O  0.90193689  0.64952392  0.70940397    -0.56840
O802        O  0.60186149  0.64805115  0.70941358    -0.56830
O803        O  0.00166237  0.71253353  0.73356265    -0.56000
O804        O  0.94105593  0.87781075  0.75530190    -0.57210
C805        C  0.59423564  0.86644822  0.74295704     0.75420
O806        O  0.49736447  0.78820248  0.67297582    -0.58360
C807        C  0.89472779  0.87105060  0.74077984     0.75390
C808        C  0.50142427  0.89170040  0.63725070     0.77790
Cd809      Cd  0.49406430  0.84767232  0.70518888     1.37470
O810        O  0.54846673  0.87256770  0.75805683    -0.57200
O811        O  0.52642704  0.89911419  0.66796038    -0.56010
C812        C  0.99671006  0.76986938  0.70340503     0.77750
O813        O  0.47213392  0.86344836  0.63759533    -0.58390
O814        O  0.59386269  0.85043205  0.71097740    -0.56840
O815        O  0.89395431  0.85344442  0.70985705    -0.56830
O816        O  0.49469992  0.78724566  0.73439979    -0.56000
C817        C  0.55023275  0.96115730  0.56499982    -0.19700
C818        C  0.50298735  0.96595446  0.54271186    -0.06260
C819        C  0.95701121  0.94339099  0.54934671     0.14600
C820        C  0.95887878  0.91823341  0.57931518    -0.19750
C821        C  0.50478188  0.91551122  0.60335554    -0.06270
C822        C  0.55167828  0.93672250  0.59544826     0.14590
C823        C  0.60339586  0.93417228  0.61897899    -0.23100
H824        H  0.58565595  0.97806239  0.55984281     0.15880
H825        H  0.92326008  0.90157345  0.58502410     0.15910
C826        C  0.90539738  0.94576289  0.52589718    -0.23050
H827        H  0.63686658  0.95099511  0.60695496     0.06120
H828        H  0.61747788  0.90591445  0.61966513     0.09350
H829        H  0.59619496  0.94383603  0.64851656     0.09350
H830        H  0.91301390  0.93583594  0.49668499     0.09330
H831        H  0.89035651  0.97365286  0.52483084     0.09330
H832        H  0.87220737  0.92867144  0.53785271     0.06110
C833        C  0.94902485  0.54175742  0.55929255    -0.19700
C834        C  0.99872458  0.53349226  0.54191079    -0.06260
C835        C  0.54571227  0.55435868  0.55124779     0.14600
C836        C  0.54217161  0.58129301  0.57922210    -0.19750
C837        C  0.99355488  0.58707424  0.59918980    -0.06270
C838        C  0.94573707  0.56797867  0.58795556     0.14590
C839        C  0.89104789  0.57478726  0.60598303    -0.23100
H840        H  0.91279282  0.52644104  0.55168724     0.15880
H841        H  0.57880067  0.59620407  0.58728050     0.15910
C842        C  0.60079985  0.54799842  0.53399711    -0.23050
H843        H  0.85769058  0.55947823  0.59140798     0.06120
H844        H  0.88127304  0.60381024  0.60401835     0.09350
H845        H  0.89144054  0.56620713  0.63634722     0.09350
H846        H  0.61413483  0.57227138  0.51795958     0.09330
H847        H  0.60060921  0.52485776  0.51437587     0.09330
H848        H  0.63101931  0.54245086  0.55702437     0.06110
C849        C  0.95565193  0.93589724  0.40180506    -0.19700
C850        C  0.00059581  0.91310046  0.39887182    -0.06260
C851        C  0.54214644  0.91493620  0.42730149     0.14600
C852        C  0.53887589  0.94103150  0.45641751    -0.19750
C853        C  0.99614999  0.96592794  0.45700175    -0.06270
C854        C  0.95239329  0.96166430  0.43065223     0.14590
C855        C  0.90053333  0.98294589  0.43278312    -0.23100
H856        H  0.92243865  0.93374443  0.38123510     0.15880
H857        H  0.57151226  0.94342163  0.47735425     0.15910
C858        C  0.59147441  0.89116505  0.42600077    -0.23050
H859        H  0.89786994  0.00159641  0.40808861     0.06120
H860        H  0.89740877  0.49813283  0.45979395     0.09350
H861        H  0.86478079  0.96430072  0.43200114     0.09350
H862        H  0.61334402  0.89527895  0.39861407     0.09330
H863        H  0.57867816  0.86257225  0.42869492     0.09330
H864        H  0.62060411  0.89724758  0.44969374     0.06110
C865        C  0.54920455  0.56742158  0.40605070    -0.19700
C866        C  0.50211175  0.58794816  0.40134090    -0.06260
C867        C  0.95834205  0.58323323  0.42703806     0.14600
C868        C  0.96231393  0.55712030  0.45597290    -0.19750
C869        C  0.00689460  0.53366501  0.45778285    -0.06270
C870        C  0.55191608  0.53998648  0.43330481     0.14590
C871        C  0.60345574  0.51826125  0.43429833    -0.23100
H872        H  0.58319049  0.57137047  0.38675688     0.15880
H873        H  0.92867491  0.55336618  0.47548943     0.15910
C874        C  0.90720881  0.60519978  0.42383084    -0.23050
H875        H  0.60829775  0.50400253  0.40665687     0.06120
H876        H  0.60423557  0.49823847  0.45745836     0.09350
H877        H  0.63911882  0.53651844  0.43887195     0.09350
H878        H  0.88588909  0.59925271  0.39638802     0.09330
H879        H  0.91780085  0.63426169  0.42526853     0.09330
H880        H  0.87824888  0.59902396  0.44727421     0.06110
C881        C  0.70313601  0.67244529  0.08264484    -0.19700
C882        C  0.75289997  0.66270036  0.09966039    -0.06260
C883        C  0.80208683  0.67759905  0.08541506     0.14600
C884        C  0.79978041  0.70369453  0.05659176    -0.19750
C885        C  0.74981094  0.71586225  0.04198383    -0.06270
C886        C  0.70087467  0.69903123  0.05421106     0.14590
C887        C  0.64554525  0.70899506  0.03889873    -0.23100
H888        H  0.66536333  0.66064548  0.09299509     0.15880
H889        H  0.83738718  0.71560147  0.04648080     0.15910
C890        C  0.85724124  0.66629281  0.10034102    -0.23050
H891        H  0.62002005  0.71931964  0.06250792     0.06120
H892        H  0.62530778  0.68486495  0.02625469     0.09350
H893        H  0.64779375  0.72975150  0.01648084     0.09350
H894        H  0.86107957  0.63664986  0.09807923     0.09330
H895        H  0.86262182  0.67477275  0.13055475     0.09330
H896        H  0.89106047  0.67877090  0.08382734     0.06110
C897        C  0.79986577  0.82571158  0.08389285    -0.19700
C898        C  0.75021853  0.83748359  0.09895806    -0.06260
C899        C  0.70065756  0.82379696  0.08344276     0.14600
C900        C  0.70236206  0.79685663  0.05538150    -0.19750
C901        C  0.75207022  0.78361216  0.04189758    -0.06270
C902        C  0.80145483  0.79944766  0.05517807     0.14590
C903        C  0.85656014  0.78911285  0.04034962    -0.23100
H904        H  0.83796829  0.83665732  0.09510742     0.15880
H905        H  0.66449462  0.78516610  0.04491471     0.15910
C906        C  0.64585837  0.83572967  0.09777065    -0.23050
H907        H  0.88149420  0.77764059  0.06392654     0.06120
H908        H  0.87777012  0.81332862  0.02895384     0.09350
H909        H  0.85375742  0.76928645  0.01698039     0.09350
H910        H  0.64074412  0.86488356  0.09220926     0.09330
H911        H  0.64266633  0.83037630  0.12890857     0.09330
H912        H  0.61166084  0.82125118  0.08320140     0.06110
C913        C  0.70135401  0.68564759  0.90250241    -0.19700
C914        C  0.74609623  0.66264797  0.89948834    -0.06260
C915        C  0.78760694  0.66428312  0.92792914     0.14600
C916        C  0.78473689  0.69049073  0.95688256    -0.19750
C917        C  0.74261405  0.71585517  0.95737282    -0.06270
C918        C  0.69875061  0.71184023  0.93105823     0.14590
C919        C  0.64831845  0.73461646  0.93181927    -0.23100
H920        H  0.66826094  0.68375734  0.88181560     0.15880
H921        H  0.81771584  0.69279237  0.97750733     0.15910
C922        C  0.83666647  0.64023497  0.92682571    -0.23050
H923        H  0.61154733  0.71692276  0.93319705     0.06120
H924        H  0.64608542  0.75115643  0.90544770     0.09350
H925        H  0.64687058  0.75249813  0.95688508     0.09350
H926        H  0.85893150  0.64431006  0.89959284     0.09330
H927        H  0.82347749  0.61170391  0.92939288     0.09330
H928        H  0.86563706  0.64607603  0.95068103     0.06110
C929        C  0.71469731  0.80887015  0.95692887    -0.19700
C930        C  0.75689285  0.78355693  0.95755012    -0.06260
C931        C  0.80071668  0.78783836  0.93173059     0.14600
C932        C  0.79806889  0.81435705  0.90352489    -0.19750
C933        C  0.75327580  0.83735029  0.90037025    -0.06270
C934        C  0.71177183  0.83538139  0.92832274     0.14590
C935        C  0.66263779  0.85938138  0.92700052    -0.23100
H936        H  0.68171864  0.80633566  0.97714692     0.15880
H937        H  0.83110289  0.81647798  0.88317369     0.15910
C938        C  0.85110435  0.76500466  0.93262596    -0.23050
H939        H  0.63368531  0.85326451  0.95047020     0.06120
H940        H  0.64037698  0.85556150  0.89948034     0.09350
H941        H  0.67574761  0.88789901  0.93007089     0.09350
H942        H  0.85331352  0.74887205  0.90597580     0.09330
H943        H  0.85250475  0.74671079  0.95734637     0.09330
H944        H  0.88790858  0.78264145  0.93473025     0.06110
loop_ 
_geom_bond_atom_site_label_1 
_geom_bond_atom_site_label_2 
_geom_bond_distance 
_geom_bond_site_symmetry_2 
_ccdc_geom_bond_type 
C1            C2   1.362   1_556  D
C1          C209   1.498       .  S
C1          C222   1.497       .  S
C2          C177   1.491       .  S
C2          C193   1.491       .  S
O3            C6   1.267       .  A
O3           Cd8   2.460       .  S
C4           O13   1.264       .  A
C4            O9   1.264       .  A
C4           C30   1.468       .  S
O5           C11   1.265       .  A
O5           Cd8   2.495       .  S
C6           O14   1.266       .  A
C6           C32   1.466       .  S
C7           O12   1.265       .  A
C7           O10   1.263       .  A
C7          C260   1.466   1_545  S
Cd8          O15   2.444       .  S
Cd8          O14   2.465       .  S
Cd8          O13   2.480       .  S
Cd8           O9   2.474       .  S
Cd8          O12   2.483       .  S
Cd8          O10   2.461       .  S
C11          O15   1.261       .  A
C11         C174   1.480       .  S
O16          C19   1.266       .  A
O16         Cd21   2.465       .  S
C17          O26   1.263       .  A
C17          O22   1.265       .  A
C17          C43   1.463       .  S
O18          C24   1.264       .  A
O18         Cd21   2.487       .  S
C19          O27   1.267       .  A
C19          C45   1.466       .  S
C20          O25   1.264       .  A
C20          O23   1.263       .  A
C20         C190   1.481       .  S
Cd21         O28   2.463       .  S
Cd21         O27   2.460       .  S
Cd21         O26   2.458       .  S
Cd21         O22   2.472       .  S
Cd21         O25   2.479       .  S
Cd21         O23   2.459       .  S
C24          O28   1.262       .  A
C24         C243   1.466       .  S
O29          C32   1.267       .  A
O29        Cd506   2.469       .  S
C30          O39   1.264       .  A
C30          O35   1.266       .  A
O31         C509   1.264       .  A
O31         Cd34   2.484       .  S
C32          O40   1.265       .  A
C33          O38   1.263   1_655  A
C33         O508   1.262       .  A
C33         C158   1.477   1_655  S
Cd34         O41   2.462   1_655  S
Cd34         O39   2.466   1_655  S
Cd34         O35   2.484   1_655  S
Cd34         O38   2.470   1_655  S
Cd34        O501   2.469       .  S
Cd34        O512   2.455       .  S
Cd34        O508   2.476       .  S
O36         C505   1.262       .  A
O36        Cd506   2.476       .  S
C37         O503   1.264       .  A
C37         O513   1.263       .  A
C37         C518   1.465       .  S
O40        Cd506   2.455       .  S
O41         C509   1.263   1_455  A
O42          C45   1.265       .  A
O42        Cd519   2.461       .  S
C43          O52   1.264       .  A
C43          O48   1.264       .  A
O44         C522   1.265       .  A
O44         Cd47   2.500       .  S
C45          O53   1.267       .  A
C46          O51   1.265       .  A
C46         O521   1.263   1_655  A
C46         C509   1.465       .  S
Cd47         O54   2.429   1_455  S
Cd47         O52   2.469       .  S
Cd47         O48   2.462       .  S
Cd47         O51   2.481   1_455  S
Cd47        O514   2.461   1_455  S
Cd47        O525   2.471   1_455  S
Cd47        O521   2.460       .  S
O49         C518   1.263       .  A
O49        Cd519   2.460       .  S
C50         O516   1.265       .  A
C50         O526   1.263       .  A
C50         C142   1.485       .  S
O53        Cd519   2.471       .  S
O54         C522   1.263   1_655  A
C55          C56   1.363       .  D
C55         C582   1.495       .  S
C55         C362   1.494       .  S
C56         C145   1.495       .  S
C56         C397   1.498       .  S
O57          C60   1.265       .  A
O57         Cd62   2.453       .  S
C58          O67   1.263       .  A
C58          O63   1.262       .  A
C58          C84   1.463       .  S
O59          C65   1.264       .  A
O59         Cd62   2.496       .  S
C60          O68   1.267       .  A
C60          C86   1.465       .  S
C61          O66   1.264       .  A
C61          O64   1.263       .  A
C61         C314   1.466   1_545  S
Cd62         O69   2.441       .  S
Cd62         O68   2.467       .  S
Cd62         O67   2.470       .  S
Cd62         O63   2.467       .  S
Cd62         O66   2.477       .  S
Cd62         O64   2.471       .  S
C65          O69   1.263       .  A
C65         C206   1.486       .  S
O70          C73   1.262       .  A
O70         Cd75   2.462       .  S
C71          O80   1.267       .  A
C71          O76   1.265       .  A
C71          C99   1.463       .  S
O72          C78   1.264       .  A
O72         Cd75   2.478       .  S
C73          O81   1.263       .  A
C73          C97   1.461       .  S
C74          O79   1.264       .  A
C74          O77   1.263       .  A
C74         C225   1.485       .  S
Cd75         O82   2.470       .  S
Cd75         O81   2.463       .  S
Cd75         O80   2.459       .  S
Cd75         O76   2.451       .  S
Cd75         O79   2.492       .  S
Cd75         O77   2.437       .  S
C78          O82   1.263       .  A
C78         C297   1.466       .  S
O83          C86   1.263       .  A
O83        Cd560   2.475       .  S
C84          O93   1.267       .  A
C84          O89   1.266       .  A
O85         C563   1.264       .  A
O85         Cd88   2.485       .  S
C86          O94   1.264       .  A
C87          O92   1.265       .  A
C87          O90   1.261       .  A
C87         C129   1.482       .  S
Cd88         O95   2.470       .  S
Cd88         O93   2.455       .  S
Cd88         O89   2.453       .  S
Cd88         O92   2.495       .  S
Cd88         O90   2.446       .  S
Cd88        O555   2.475       .  S
Cd88        O566   2.470       .  S
C91         O557   1.264       .  A
C91         O567   1.263   1_655  A
C91         C576   1.467       .  S
O94        Cd560   2.470       .  S
O95         C563   1.263       .  A
O96          C99   1.262       .  A
O96        Cd573   2.465       .  S
C97         O106   1.267       .  A
C97         O102   1.266       .  A
O98         C576   1.264       .  A
O98        Cd101   2.484       .  S
C99         O107   1.264       .  A
C100        O105   1.266   1_455  A
C100        O103   1.261       .  A
C100        C113   1.482       .  S
Cd101       O108   2.469       .  S
Cd101       O106   2.452   1_655  S
Cd101       O102   2.446   1_655  S
Cd101       O105   2.492       .  S
Cd101       O103   2.443   1_655  S
Cd101       O568   2.465       .  S
Cd101       O579   2.470       .  S
C104        O570   1.264       .  A
C104        O580   1.263       .  A
C104        C563   1.467       .  S
O107       Cd573   2.470       .  S
O108        C576   1.263       .  A
C109        C110   1.403       .  A
C109        C114   1.401       .  A
C109        H116   1.082       .  S
C110        C527   1.495       .  S
C110        C583   1.417   1_455  A
C111        C112   1.406       .  A
C111        C582   1.417       .  A
C111        C118   1.505       .  S
C112        C585   1.403       .  A
C112        H117   1.084       .  S
C113        C114   1.415       .  A
C113        C584   1.403   1_455  A
C114        C115   1.509       .  S
C115        H119   1.111       .  S
C115        H120   1.110       .  S
C115        H121   1.110       .  S
C118        H122   1.104       .  S
C118        H123   1.105       .  S
C118        H124   1.111       .  S
C125        C126   1.402       .  A
C125        C130   1.402       .  A
C125        H132   1.081       .  S
C126        C291   1.494   1_545  S
C126        C599   1.417       .  A
C127        C128   1.404       .  A
C127        C598   1.417   1_455  A
C127        C134   1.503       .  S
C128        C601   1.403   1_455  A
C128        H133   1.085       .  S
C129        C130   1.416       .  A
C129        C600   1.403       .  A
C130        C131   1.509       .  S
C131        H135   1.111       .  S
C131        H136   1.110       .  S
C131        H137   1.109       .  S
C134        H138   1.110       .  S
C134        H139   1.100       .  S
C134        H140   1.110       .  S
C141        C142   1.401       .  A
C141        C146   1.394       .  A
C141        H148   1.084       .  S
C142        C615   1.418       .  A
C143        C144   1.410       .  A
C143        C614   1.418       .  A
C143        C150   1.506       .  S
C144        C617   1.405   1_455  A
C144        H149   1.083       .  S
C145        C146   1.415       .  A
C145        C616   1.405       .  A
C146        C147   1.506       .  S
C147        H151   1.110       .  S
C147        H153   1.111       .  S
C147        H388   1.104       .  S
C150        H154   1.111       .  S
C150        H155   1.110       .  S
C150        H156   1.111       .  S
H152        C383   1.104       .  S
C157        C158   1.399       .  A
C157        C162   1.398       .  A
C157        H164   1.084       .  S
C158        C631   1.414   1_455  A
C159        C160   1.406       .  A
C159        C630   1.414       .  A
C159        C166   1.506       .  S
C160        C161   1.406       .  A
C160        H165   1.082       .  S
C161        C292   1.498   1_545  S
C161        C634   1.419       .  A
C162        C633   1.419       .  A
C162        C163   1.506       .  S
C163        H167   1.110       .  S
C163        H168   1.101   1_545  S
C163        H169   1.111       .  S
C166        H170   1.110       .  S
C166        H171   1.110       .  S
C166        H172   1.111       .  S
C173        C174   1.403       .  A
C173        C178   1.404       .  A
C173        H180   1.084       .  S
C174        C175   1.415       .  A
C175        C176   1.401       .  A
C175        C182   1.509       .  S
C176        C177   1.402       .  A
C176        H181   1.080       .  S
C177        C178   1.415       .  A
C178        C179   1.503       .  S
C179        H183   1.110       .  S
C179        H184   1.110       .  S
C179        H185   1.102       .  S
C182        H186   1.110       .  S
C182        H187   1.109       .  S
C182        H188   1.111       .  S
C189        C190   1.403       .  A
C189        C194   1.402       .  A
C189        H196   1.084       .  S
C190        C191   1.415       .  A
C191        C192   1.403       .  A
C191        C198   1.507       .  S
C192        C193   1.403       .  A
C192        H197   1.081       .  S
C193        C194   1.414       .  A
C194        C195   1.503       .  S
C195        H199   1.110       .  S
C195        H200   1.110       .  S
C195        H201   1.102       .  S
C198        H202   1.110       .  S
C198        H203   1.110       .  S
C198        H204   1.111       .  S
C205        C206   1.402       .  A
C205        C210   1.397       .  A
C205        H212   1.084       .  S
C206        C207   1.417       .  A
C207        C208   1.408       .  A
C207        C214   1.506       .  S
C208        C209   1.406       .  A
C208        H213   1.081       .  S
C209        C210   1.416       .  A
C210        C211   1.506       .  S
C211        H215   1.111       .  S
C211        H216   1.110       .  S
C211        H217   1.101       .  S
C214        H218   1.111       .  S
C214        H219   1.110       .  S
C214        H220   1.111       .  S
C221        C222   1.406       .  A
C221        C226   1.407       .  A
C221        H228   1.081       .  S
C222        C223   1.416       .  A
C223        C224   1.397       .  A
C223        C230   1.506       .  S
C224        C225   1.402       .  A
C224        H229   1.084       .  S
C225        C226   1.417       .  A
C226        C227   1.507       .  S
C227        H231   1.111       .  S
C227        H232   1.111       .  S
C227        H233   1.110       .  S
C230        H234   1.110       .  S
C230        H235   1.101       .  S
C230        H236   1.111       .  S
C237        C238   1.362   1_556  D
C237        C445   1.498       .  S
C237        C458   1.497       .  S
C238        C413   1.491       .  S
C238        C429   1.491       .  S
O239        C242   1.267       .  A
O239       Cd244   2.460       .  S
C240        O249   1.264       .  A
C240        O245   1.264       .  A
C240        C266   1.468       .  S
O241        C247   1.265       .  A
O241       Cd244   2.495       .  S
C242        O250   1.266       .  A
C242        C268   1.466       .  S
C243        O248   1.265       .  A
C243        O246   1.263       .  A
Cd244       O251   2.444       .  S
Cd244       O250   2.465       .  S
Cd244       O249   2.480       .  S
Cd244       O245   2.474       .  S
Cd244       O248   2.483       .  S
Cd244       O246   2.461       .  S
C247        O251   1.261       .  A
C247        C410   1.480       .  S
O252        C255   1.266       .  A
O252       Cd257   2.465       .  S
C253        O262   1.263       .  A
C253        O258   1.265       .  A
C253        C279   1.463       .  S
O254        C260   1.264       .  A
O254       Cd257   2.487       .  S
C255        O263   1.267       .  A
C255        C281   1.466       .  S
C256        O261   1.264       .  A
C256        O259   1.263       .  A
C256        C426   1.481       .  S
Cd257       O264   2.463       .  S
Cd257       O263   2.460       .  S
Cd257       O262   2.458       .  S
Cd257       O258   2.472       .  S
Cd257       O261   2.479       .  S
Cd257       O259   2.459       .  S
C260        O264   1.262       .  A
O265        C268   1.267       .  A
O265       Cd742   2.469       .  S
C266        O275   1.264       .  A
C266        O271   1.266       .  A
O267        C745   1.264       .  A
O267       Cd270   2.484       .  S
C268        O276   1.265       .  A
C269        O274   1.263   1_655  A
C269        O744   1.262       .  A
C269        C394   1.477   1_655  S
Cd270       O737   2.469       .  S
Cd270       O277   2.462   1_655  S
Cd270       O748   2.455       .  S
Cd270       O275   2.466   1_655  S
Cd270       O271   2.484   1_655  S
Cd270       O274   2.470   1_655  S
Cd270       O744   2.476       .  S
O272        C741   1.262       .  A
O272       Cd742   2.476       .  S
C273        O739   1.264       .  A
C273        O749   1.263       .  A
C273        C754   1.465       .  S
O276       Cd742   2.455       .  S
O277        C745   1.263   1_455  A
O278        C281   1.265       .  A
O278       Cd755   2.461       .  S
C279        O288   1.264       .  A
C279        O284   1.264       .  A
O280        C758   1.265       .  A
O280       Cd283   2.500       .  S
C281        O289   1.267       .  A
C282        O287   1.265       .  A
C282        O757   1.263   1_655  A
C282        C745   1.465       .  S
Cd283       O750   2.461   1_455  S
Cd283       O290   2.429   1_455  S
Cd283       O761   2.471   1_455  S
Cd283       O288   2.469       .  S
Cd283       O284   2.462       .  S
Cd283       O287   2.481   1_455  S
Cd283       O757   2.460       .  S
O285        C754   1.263       .  A
O285       Cd755   2.460       .  S
C286        O752   1.265       .  A
C286        O762   1.263       .  A
C286        C378   1.485       .  S
O289       Cd755   2.471       .  S
O290        C758   1.263   1_655  A
C291        C292   1.363       .  D
C291        C818   1.495       .  S
C292        C381   1.495       .  S
O293        C296   1.265       .  A
O293       Cd298   2.453       .  S
C294        O303   1.263       .  A
C294        O299   1.262       .  A
C294        C320   1.463       .  S
O295        C301   1.264       .  A
O295       Cd298   2.496       .  S
C296        O304   1.267       .  A
C296        C322   1.465       .  S
C297        O302   1.264       .  A
C297        O300   1.263       .  A
Cd298       O305   2.441       .  S
Cd298       O304   2.467       .  S
Cd298       O303   2.470       .  S
Cd298       O299   2.467       .  S
Cd298       O302   2.477       .  S
Cd298       O300   2.471       .  S
C301        O305   1.263       .  A
C301        C442   1.486       .  S
O306        C309   1.262       .  A
O306       Cd311   2.462       .  S
C307        O316   1.267       .  A
C307        O312   1.265       .  A
C307        C335   1.463       .  S
O308        C314   1.264       .  A
O308       Cd311   2.478       .  S
C309        O317   1.263       .  A
C309        C333   1.461       .  S
C310        O315   1.264       .  A
C310        O313   1.263       .  A
C310        C461   1.485       .  S
Cd311       O318   2.470       .  S
Cd311       O317   2.463       .  S
Cd311       O316   2.459       .  S
Cd311       O312   2.451       .  S
Cd311       O315   2.492       .  S
Cd311       O313   2.437       .  S
C314        O318   1.263       .  A
O319        C322   1.263       .  A
O319       Cd796   2.475       .  S
C320        O329   1.267       .  A
C320        O325   1.266       .  A
O321        C799   1.264       .  A
O321       Cd324   2.485       .  S
C322        O330   1.264       .  A
C323        O328   1.265       .  A
C323        O326   1.261       .  A
C323        C365   1.482       .  S
Cd324       O791   2.475       .  S
Cd324       O331   2.470       .  S
Cd324       O802   2.470       .  S
Cd324       O329   2.455       .  S
Cd324       O325   2.453       .  S
Cd324       O328   2.495       .  S
Cd324       O326   2.446       .  S
C327        O793   1.264       .  A
C327        O803   1.263   1_655  A
C327        C812   1.467       .  S
O330       Cd796   2.470       .  S
O331        C799   1.263       .  A
O332        C335   1.262       .  A
O332       Cd809   2.465       .  S
C333        O342   1.267       .  A
C333        O338   1.266       .  A
O334        C812   1.264       .  A
O334       Cd337   2.484       .  S
C335        O343   1.264       .  A
C336        O341   1.266   1_455  A
C336        O339   1.261       .  A
C336        C349   1.482       .  S
Cd337       O804   2.465       .  S
Cd337       O344   2.469       .  S
Cd337       O815   2.470       .  S
Cd337       O342   2.452   1_655  S
Cd337       O338   2.446   1_655  S
Cd337       O341   2.492       .  S
Cd337       O339   2.443   1_655  S
C340        O806   1.264       .  A
C340        O816   1.263       .  A
C340        C799   1.467       .  S
O343       Cd809   2.470       .  S
O344        C812   1.263       .  A
C345        C346   1.403       .  A
C345        C350   1.401       .  A
C345        H352   1.082       .  S
C346        C763   1.495       .  S
C346        C819   1.417   1_455  A
C347        C818   1.417       .  A
C347        C348   1.406       .  A
C347        C354   1.505       .  S
C348        C821   1.403       .  A
C348        H353   1.084       .  S
C349        C820   1.403   1_455  A
C349        C350   1.415       .  A
C350        C351   1.509       .  S
C351        H355   1.111       .  S
C351        H356   1.110       .  S
C351        H357   1.110       .  S
C354        H358   1.104       .  S
C354        H359   1.105       .  S
C354        H360   1.111       .  S
C361        C362   1.402       .  A
C361        C366   1.402       .  A
C361        H368   1.081       .  S
C362        C835   1.417       .  A
C363        C834   1.417   1_455  A
C363        C364   1.404       .  A
C363        C370   1.503       .  S
C364        C837   1.403   1_455  A
C364        H369   1.085       .  S
C365        C836   1.403       .  A
C365        C366   1.416       .  A
C366        C367   1.509       .  S
C367        H371   1.111       .  S
C367        H372   1.110       .  S
C367        H373   1.109       .  S
C370        H374   1.110       .  S
C370        H375   1.100       .  S
C370        H376   1.110       .  S
C377        C378   1.401       .  A
C377        C382   1.394       .  A
C377        H384   1.084       .  S
C378        C851   1.418       .  A
C379        C850   1.418       .  A
C379        C380   1.410       .  A
C379        C386   1.506       .  S
C380        C853   1.405   1_455  A
C380        H385   1.083       .  S
C381        C852   1.405       .  A
C381        C382   1.415       .  A
C382        C383   1.506       .  S
C383        H387   1.110   1_565  S
C383        H389   1.111       .  S
C386        H390   1.111       .  S
C386        H391   1.110       .  S
C386        H392   1.111       .  S
C393        C394   1.399       .  A
C393        C398   1.398       .  A
C393        H400   1.084       .  S
C394        C867   1.414   1_455  A
C395        C866   1.414       .  A
C395        C396   1.406       .  A
C395        C402   1.506       .  S
C396        C397   1.406       .  A
C396        H401   1.082       .  S
C397        C870   1.419       .  A
C398        C869   1.419       .  A
C398        C399   1.506       .  S
C399        H403   1.110       .  S
C399        H404   1.101       .  S
C399        H405   1.111       .  S
C402        H406   1.110       .  S
C402        H407   1.110       .  S
C402        H408   1.111       .  S
C409        C410   1.403       .  A
C409        C414   1.404       .  A
C409        H416   1.084       .  S
C410        C411   1.415       .  A
C411        C412   1.401       .  A
C411        C418   1.509       .  S
C412        C413   1.402       .  A
C412        H417   1.080       .  S
C413        C414   1.415       .  A
C414        C415   1.503       .  S
C415        H419   1.110       .  S
C415        H420   1.110       .  S
C415        H421   1.102       .  S
C418        H422   1.110       .  S
C418        H423   1.109       .  S
C418        H424   1.111       .  S
C425        C426   1.403       .  A
C425        C430   1.402       .  A
C425        H432   1.084       .  S
C426        C427   1.415       .  A
C427        C428   1.403       .  A
C427        C434   1.507       .  S
C428        C429   1.403       .  A
C428        H433   1.081       .  S
C429        C430   1.414       .  A
C430        C431   1.503       .  S
C431        H435   1.110       .  S
C431        H436   1.110       .  S
C431        H437   1.102       .  S
C434        H438   1.110       .  S
C434        H439   1.110       .  S
C434        H440   1.111       .  S
C441        C442   1.402       .  A
C441        C446   1.397       .  A
C441        H448   1.084       .  S
C442        C443   1.417       .  A
C443        C444   1.408       .  A
C443        C450   1.506       .  S
C444        C445   1.406       .  A
C444        H449   1.081       .  S
C445        C446   1.416       .  A
C446        C447   1.506       .  S
C447        H451   1.111       .  S
C447        H452   1.110       .  S
C447        H453   1.101       .  S
C450        H454   1.111       .  S
C450        H455   1.110       .  S
C450        H456   1.111       .  S
C457        C458   1.406       .  A
C457        C462   1.407       .  A
C457        H464   1.081       .  S
C458        C459   1.416       .  A
C459        C460   1.397       .  A
C459        C466   1.506       .  S
C460        C461   1.402       .  A
C460        H465   1.084       .  S
C461        C462   1.417       .  A
C462        C463   1.507       .  S
C463        H467   1.111       .  S
C463        H468   1.111       .  S
C463        H469   1.110       .  S
C466        H470   1.110       .  S
C466        H471   1.101       .  S
C466        H472   1.111       .  S
C473        C474   1.362   1_556  D
C473        C681   1.498       .  S
C473        C694   1.497       .  S
C474        C649   1.491       .  S
C474        C665   1.491       .  S
O475        C478   1.267       .  A
O475       Cd480   2.460       .  S
C476        O485   1.264       .  A
C476        O481   1.264       .  A
C476        C502   1.468       .  S
O477        C483   1.265       .  A
O477       Cd480   2.495       .  S
C478        O486   1.266       .  A
C478        C504   1.466       .  S
C479        O484   1.265       .  A
C479        O482   1.263       .  A
C479        C732   1.466   1_545  S
Cd480       O487   2.444       .  S
Cd480       O486   2.465       .  S
Cd480       O485   2.480       .  S
Cd480       O481   2.474       .  S
Cd480       O484   2.483       .  S
Cd480       O482   2.461       .  S
C483        O487   1.261       .  A
C483        C646   1.480       .  S
O488        C491   1.266       .  A
O488       Cd493   2.465       .  S
C489        O498   1.263       .  A
C489        O494   1.265       .  A
C489        C515   1.463       .  S
O490        C496   1.264       .  A
O490       Cd493   2.487       .  S
C491        O499   1.267       .  A
C491        C517   1.466       .  S
C492        O497   1.264       .  A
C492        O495   1.263       .  A
C492        C662   1.481       .  S
Cd493       O500   2.463       .  S
Cd493       O499   2.460       .  S
Cd493       O498   2.458       .  S
Cd493       O494   2.472       .  S
Cd493       O497   2.479       .  S
Cd493       O495   2.459       .  S
C496        O500   1.262       .  A
C496        C715   1.466       .  S
O501        C504   1.267       .  A
C502        O511   1.264       .  A
C502        O507   1.266       .  A
O503       Cd506   2.484       .  S
C504        O512   1.265       .  A
C505        O510   1.263       .  A
C505        C630   1.477       .  S
Cd506       O513   2.462       .  S
Cd506       O511   2.466       .  S
Cd506       O507   2.484       .  S
Cd506       O510   2.470       .  S
O514        C517   1.265       .  A
C515        O524   1.264       .  A
C515        O520   1.264       .  A
O516       Cd519   2.500       .  S
C517        O525   1.267       .  A
C518        O523   1.265       .  A
Cd519       O526   2.429       .  S
Cd519       O524   2.469       .  S
Cd519       O520   2.462       .  S
Cd519       O523   2.481       .  S
C522        C614   1.485       .  S
C527        C528   1.363       .  D
C527        C834   1.494   1_455  S
C528        C617   1.495   1_455  S
C528        C869   1.498       .  S
O529        C532   1.265       .  A
O529       Cd534   2.453       .  S
C530        O539   1.263       .  A
C530        O535   1.262       .  A
C530        C556   1.463       .  S
O531        C537   1.264       .  A
O531       Cd534   2.496       .  S
C532        O540   1.267       .  A
C532        C558   1.465       .  S
C533        O538   1.264       .  A
C533        O536   1.263       .  A
C533        C786   1.466   1_545  S
Cd534       O541   2.441       .  S
Cd534       O540   2.467       .  S
Cd534       O539   2.470       .  S
Cd534       O535   2.467       .  S
Cd534       O538   2.477       .  S
Cd534       O536   2.471       .  S
C537        O541   1.263       .  A
C537        C678   1.486       .  S
O542        C545   1.262       .  A
O542       Cd547   2.462       .  S
C543        O552   1.267       .  A
C543        O548   1.265       .  A
C543        C571   1.463       .  S
O544        C550   1.264       .  A
O544       Cd547   2.478       .  S
C545        O553   1.263       .  A
C545        C569   1.461       .  S
C546        O551   1.264       .  A
C546        O549   1.263       .  A
C546        C697   1.485       .  S
Cd547       O554   2.470       .  S
Cd547       O553   2.463       .  S
Cd547       O552   2.459       .  S
Cd547       O548   2.451       .  S
Cd547       O551   2.492       .  S
Cd547       O549   2.437       .  S
C550        O554   1.263       .  A
C550        C769   1.466       .  S
O555        C558   1.263       .  A
C556        O565   1.267       .  A
C556        O561   1.266       .  A
O557       Cd560   2.485   1_655  S
C558        O566   1.264       .  A
C559        O564   1.265   1_655  A
C559        O562   1.261       .  A
C559        C601   1.482       .  S
Cd560       O567   2.470       .  S
Cd560       O565   2.455   1_455  S
Cd560       O561   2.453   1_455  S
Cd560       O564   2.495       .  S
Cd560       O562   2.446   1_455  S
O568        C571   1.262       .  A
C569        O578   1.267       .  A
C569        O574   1.266       .  A
O570       Cd573   2.484       .  S
C571        O579   1.264       .  A
C572        O577   1.266       .  A
C572        O575   1.261       .  A
C572        C585   1.482       .  S
Cd573       O580   2.469       .  S
Cd573       O578   2.452       .  S
Cd573       O574   2.446       .  S
Cd573       O577   2.492       .  S
Cd573       O575   2.443       .  S
C581        C582   1.403       .  A
C581        C586   1.401       .  A
C581        H588   1.082       .  S
C583        C584   1.406       .  A
C583        C590   1.505       .  S
C584        H589   1.084       .  S
C585        C586   1.415       .  A
C586        C587   1.509       .  S
C587        H591   1.111       .  S
C587        H592   1.110       .  S
C587        H593   1.110       .  S
C590        H594   1.104       .  S
C590        H595   1.105       .  S
C590        H596   1.111       .  S
C597        C598   1.402       .  A
C597        C602   1.402       .  A
C597        H604   1.081       .  S
C598        C763   1.494   1_645  S
C599        C600   1.404       .  A
C599        C606   1.503       .  S
C600        H605   1.085       .  S
C601        C602   1.416       .  A
C602        C603   1.509       .  S
C603        H607   1.111       .  S
C603        H608   1.110       .  S
C603        H609   1.109       .  S
C606        H610   1.110       .  S
C606        H611   1.100       .  S
C606        H612   1.110       .  S
C613        C614   1.401   1_655  A
C613        C618   1.394       .  A
C613        H620   1.084       .  S
C615        C616   1.410       .  A
C615        C622   1.506       .  S
C616        H621   1.083       .  S
C617        C618   1.415       .  A
C618        C619   1.506       .  S
C619        H623   1.110       .  S
C619        H860   1.104       .  S
C619        H625   1.111       .  S
C622        H626   1.111       .  S
C622        H627   1.110       .  S
C622        H628   1.111       .  S
H624        C855   1.104       .  S
C629        C630   1.399       .  A
C629        C634   1.398       .  A
C629        H636   1.084       .  S
C631        C632   1.406       .  A
C631        C638   1.506       .  S
C632        C633   1.406   1_655  A
C632        H637   1.082       .  S
C633        C764   1.498   1_545  S
C634        C635   1.506       .  S
C635        H639   1.110       .  S
C635        H640   1.101   1_545  S
C635        H641   1.111       .  S
C638        H642   1.110       .  S
C638        H643   1.110       .  S
C638        H644   1.111       .  S
C645        C646   1.403       .  A
C645        C650   1.404       .  A
C645        H652   1.084       .  S
C646        C647   1.415       .  A
C647        C648   1.401       .  A
C647        C654   1.509       .  S
C648        C649   1.402       .  A
C648        H653   1.080       .  S
C649        C650   1.415       .  A
C650        C651   1.503       .  S
C651        H655   1.110       .  S
C651        H656   1.110       .  S
C651        H657   1.102       .  S
C654        H658   1.110       .  S
C654        H659   1.109       .  S
C654        H660   1.111       .  S
C661        C662   1.403       .  A
C661        C666   1.402       .  A
C661        H668   1.084       .  S
C662        C663   1.415       .  A
C663        C664   1.403       .  A
C663        C670   1.507       .  S
C664        C665   1.403       .  A
C664        H669   1.081       .  S
C665        C666   1.414       .  A
C666        C667   1.503       .  S
C667        H671   1.110       .  S
C667        H672   1.110       .  S
C667        H673   1.102       .  S
C670        H674   1.110       .  S
C670        H675   1.110       .  S
C670        H676   1.111       .  S
C677        C678   1.402       .  A
C677        C682   1.397       .  A
C677        H684   1.084       .  S
C678        C679   1.417       .  A
C679        C680   1.408       .  A
C679        C686   1.506       .  S
C680        C681   1.406       .  A
C680        H685   1.081       .  S
C681        C682   1.416       .  A
C682        C683   1.506       .  S
C683        H687   1.111       .  S
C683        H688   1.110       .  S
C683        H689   1.101       .  S
C686        H690   1.111       .  S
C686        H691   1.110       .  S
C686        H692   1.111       .  S
C693        C694   1.406       .  A
C693        C698   1.407       .  A
C693        H700   1.081       .  S
C694        C695   1.416       .  A
C695        C696   1.397       .  A
C695        C702   1.506       .  S
C696        C697   1.402       .  A
C696        H701   1.084       .  S
C697        C698   1.417       .  A
C698        C699   1.507       .  S
C699        H703   1.111       .  S
C699        H704   1.111       .  S
C699        H705   1.110       .  S
C702        H706   1.110       .  S
C702        H707   1.101       .  S
C702        H708   1.111       .  S
C709        C710   1.362   1_556  D
C709        C917   1.498       .  S
C709        C930   1.497       .  S
C710        C885   1.491       .  S
C710        C901   1.491       .  S
O711        C714   1.267       .  A
O711       Cd716   2.460       .  S
C712        O721   1.264       .  A
C712        O717   1.264       .  A
C712        C738   1.468       .  S
O713        C719   1.265       .  A
O713       Cd716   2.495       .  S
C714        O722   1.266       .  A
C714        C740   1.466       .  S
C715        O720   1.265       .  A
C715        O718   1.263       .  A
Cd716       O723   2.444       .  S
Cd716       O722   2.465       .  S
Cd716       O721   2.480       .  S
Cd716       O717   2.474       .  S
Cd716       O720   2.483       .  S
Cd716       O718   2.461       .  S
C719        O723   1.261       .  A
C719        C882   1.480       .  S
O724        C727   1.266       .  A
O724       Cd729   2.465       .  S
C725        O734   1.263       .  A
C725        O730   1.265       .  A
C725        C751   1.463       .  S
O726        C732   1.264       .  A
O726       Cd729   2.487       .  S
C727        O735   1.267       .  A
C727        C753   1.466       .  S
C728        O733   1.264       .  A
C728        O731   1.263       .  A
C728        C898   1.481       .  S
Cd729       O736   2.463       .  S
Cd729       O735   2.460       .  S
Cd729       O734   2.458       .  S
Cd729       O730   2.472       .  S
Cd729       O733   2.479       .  S
Cd729       O731   2.459       .  S
C732        O736   1.262       .  A
O737        C740   1.267       .  A
C738        O747   1.264       .  A
C738        O743   1.266       .  A
O739       Cd742   2.484       .  S
C740        O748   1.265       .  A
C741        O746   1.263       .  A
C741        C866   1.477       .  S
Cd742       O749   2.462       .  S
Cd742       O747   2.466       .  S
Cd742       O743   2.484       .  S
Cd742       O746   2.470       .  S
O750        C753   1.265       .  A
C751        O760   1.264       .  A
C751        O756   1.264       .  A
O752       Cd755   2.500       .  S
C753        O761   1.267       .  A
C754        O759   1.265       .  A
Cd755       O762   2.429       .  S
Cd755       O760   2.469       .  S
Cd755       O756   2.462       .  S
Cd755       O759   2.481       .  S
C758        C850   1.485       .  S
C763        C764   1.363       .  D
C764        C853   1.495   1_455  S
O765        C768   1.265       .  A
O765       Cd770   2.453       .  S
C766        O775   1.263       .  A
C766        O771   1.262       .  A
C766        C792   1.463       .  S
O767        C773   1.264       .  A
O767       Cd770   2.496       .  S
C768        O776   1.267       .  A
C768        C794   1.465       .  S
C769        O774   1.264       .  A
C769        O772   1.263       .  A
Cd770       O777   2.441       .  S
Cd770       O776   2.467       .  S
Cd770       O775   2.470       .  S
Cd770       O771   2.467       .  S
Cd770       O774   2.477       .  S
Cd770       O772   2.471       .  S
C773        O777   1.263       .  A
C773        C914   1.486       .  S
O778        C781   1.262       .  A
O778       Cd783   2.462       .  S
C779        O788   1.267       .  A
C779        O784   1.265       .  A
C779        C807   1.463       .  S
O780        C786   1.264       .  A
O780       Cd783   2.478       .  S
C781        O789   1.263       .  A
C781        C805   1.461       .  S
C782        O787   1.264       .  A
C782        O785   1.263       .  A
C782        C933   1.485       .  S
Cd783       O790   2.470       .  S
Cd783       O789   2.463       .  S
Cd783       O788   2.459       .  S
Cd783       O784   2.451       .  S
Cd783       O787   2.492       .  S
Cd783       O785   2.437       .  S
C786        O790   1.263       .  A
O791        C794   1.263       .  A
C792        O801   1.267       .  A
C792        O797   1.266       .  A
O793       Cd796   2.485   1_655  S
C794        O802   1.264       .  A
C795        O800   1.265   1_655  A
C795        O798   1.261       .  A
C795        C837   1.482       .  S
Cd796       O803   2.470       .  S
Cd796       O801   2.455   1_455  S
Cd796       O797   2.453   1_455  S
Cd796       O800   2.495       .  S
Cd796       O798   2.446   1_455  S
O804        C807   1.262       .  A
C805        O814   1.267       .  A
C805        O810   1.266       .  A
O806       Cd809   2.484       .  S
C807        O815   1.264       .  A
C808        O813   1.266       .  A
C808        O811   1.261       .  A
C808        C821   1.482       .  S
Cd809       O816   2.469       .  S
Cd809       O814   2.452       .  S
Cd809       O810   2.446       .  S
Cd809       O813   2.492       .  S
Cd809       O811   2.443       .  S
C817        C818   1.403       .  A
C817        C822   1.401       .  A
C817        H824   1.082       .  S
C819        C820   1.406       .  A
C819        C826   1.505       .  S
C820        H825   1.084       .  S
C821        C822   1.415       .  A
C822        C823   1.509       .  S
C823        H827   1.111       .  S
C823        H828   1.110       .  S
C823        H829   1.110       .  S
C826        H830   1.104       .  S
C826        H831   1.105       .  S
C826        H832   1.111       .  S
C833        C834   1.402       .  A
C833        C838   1.402       .  A
C833        H840   1.081       .  S
C835        C836   1.404       .  A
C835        C842   1.503       .  S
C836        H841   1.085       .  S
C837        C838   1.416       .  A
C838        C839   1.509       .  S
C839        H843   1.111       .  S
C839        H844   1.110       .  S
C839        H845   1.109       .  S
C842        H846   1.110       .  S
C842        H847   1.100       .  S
C842        H848   1.110       .  S
C849        C850   1.401   1_655  A
C849        C854   1.394       .  A
C849        H856   1.084       .  S
C851        C852   1.410       .  A
C851        C858   1.506       .  S
C852        H857   1.083       .  S
C853        C854   1.415       .  A
C854        C855   1.506       .  S
C855        H859   1.110   1_565  S
C855        H861   1.111       .  S
C858        H862   1.111       .  S
C858        H863   1.110       .  S
C858        H864   1.111       .  S
C865        C866   1.399       .  A
C865        C870   1.398       .  A
C865        H872   1.084       .  S
C867        C868   1.406       .  A
C867        C874   1.506       .  S
C868        C869   1.406   1_655  A
C868        H873   1.082       .  S
C870        C871   1.506       .  S
C871        H875   1.110       .  S
C871        H876   1.101       .  S
C871        H877   1.111       .  S
C874        H878   1.110       .  S
C874        H879   1.110       .  S
C874        H880   1.111       .  S
C881        C882   1.403       .  A
C881        C886   1.404       .  A
C881        H888   1.084       .  S
C882        C883   1.415       .  A
C883        C884   1.401       .  A
C883        C890   1.509       .  S
C884        C885   1.402       .  A
C884        H889   1.080       .  S
C885        C886   1.415       .  A
C886        C887   1.503       .  S
C887        H891   1.110       .  S
C887        H892   1.110       .  S
C887        H893   1.102       .  S
C890        H894   1.110       .  S
C890        H895   1.109       .  S
C890        H896   1.111       .  S
C897        C898   1.403       .  A
C897        C902   1.402       .  A
C897        H904   1.084       .  S
C898        C899   1.415       .  A
C899        C900   1.403       .  A
C899        C906   1.507       .  S
C900        C901   1.403       .  A
C900        H905   1.081       .  S
C901        C902   1.414       .  A
C902        C903   1.503       .  S
C903        H907   1.110       .  S
C903        H908   1.110       .  S
C903        H909   1.102       .  S
C906        H910   1.110       .  S
C906        H911   1.110       .  S
C906        H912   1.111       .  S
C913        C914   1.402       .  A
C913        C918   1.397       .  A
C913        H920   1.084       .  S
C914        C915   1.417       .  A
C915        C916   1.408       .  A
C915        C922   1.506       .  S
C916        C917   1.406       .  A
C916        H921   1.081       .  S
C917        C918   1.416       .  A
C918        C919   1.506       .  S
C919        H923   1.111       .  S
C919        H924   1.110       .  S
C919        H925   1.101       .  S
C922        H926   1.111       .  S
C922        H927   1.110       .  S
C922        H928   1.111       .  S
C929        C930   1.406       .  A
C929        C934   1.407       .  A
C929        H936   1.081       .  S
C930        C931   1.416       .  A
C931        C932   1.397       .  A
C931        C938   1.506       .  S
C932        C933   1.402       .  A
C932        H937   1.084       .  S
C933        C934   1.417       .  A
C934        C935   1.507       .  S
C935        H939   1.111       .  S
C935        H940   1.111       .  S
C935        H941   1.110       .  S
C938        H942   1.110       .  S
C938        H943   1.101       .  S
C938        H944   1.111       .  S
