geometry optimzed in LAMMPS
_audit_creation_date              2020-11-30 
_audit_creation_method            'lammps2cif' 
_symmetry_space_group_name_H-M    'P1' 
_symmetry_Int_Tables_number       1 
_symmetry_cell_setting            triclinic 
loop_ 
_symmetry_equiv_pos_as_xyz 
  x,y,z 
_cell_length_a                    41.06097308587423 
_cell_length_b                    42.57617903822213 
_cell_length_c                    41.73249334685591 
_cell_angle_alpha                 89.66681104739351 
_cell_angle_beta                  91.29152352271973 
_cell_angle_gamma                 89.46560371760708 
loop_ 
_atom_site_label 
_atom_site_type_symbol 
_atom_site_fract_x 
_atom_site_fract_y 
_atom_site_fract_z 
_atom_site_charge 
C1          C  0.36671591  0.36656320  0.00567183     0.03920
C2          C  0.37855687  0.33544780  0.50283661    -0.12230
C3          C  0.36006746  0.31068289  0.51458447     0.01420
C4          C  0.33416501  0.31831322  0.03444928    -0.10760
C5          C  0.31614623  0.34590920  0.02738341     0.03910
C6          C  0.33370070  0.37096568  0.01406849    -0.10180
H7          H  0.40132115  0.33031746  0.49132939     0.09510
H8          H  0.32342684  0.29927620  0.04764083     0.07040
H9          H  0.32221560  0.39363961  0.00999587     0.06880
C10         C  0.36360464  0.22538935  0.49019901     0.03920
C11         C  0.37534884  0.25523774  0.49913990    -0.12230
C12         C  0.35537873  0.28156923  0.49557820     0.01420
C13         C  0.32553608  0.27869555  0.47909185    -0.10760
C14         C  0.31099810  0.24925733  0.47331898     0.03910
C15         C  0.33079078  0.22242900  0.47910086    -0.10180
H16         H  0.39943598  0.25790672  0.50980739     0.09510
H17         H  0.31221492  0.30032832  0.47549568     0.07040
H18         H  0.32089119  0.19924931  0.47547389     0.06880
C19         C  0.22402804  0.22575387  0.48955574     0.03920
C20         C  0.25567775  0.22132043  0.47704365    -0.12230
C21         C  0.27421632  0.24782873  0.46847797     0.01420
C22         C  0.25654135  0.27617097  0.46507156    -0.10760
C23         C  0.23162717  0.28204168  0.48665809     0.03910
C24         C  0.21482789  0.25638642  0.49871472    -0.10180
H25         H  0.26562840  0.19794248  0.47436562     0.09510
H26         H  0.26710779  0.29624270  0.45340463     0.07040
H27         H  0.19442512  0.26015272  0.51430766     0.06880
C28         C  0.22642984  0.36751658  0.00860267     0.03920
C29         C  0.25928968  0.37099168  0.01915747    -0.12230
C30         C  0.27939336  0.34439790  0.02497500     0.01420
C31         C  0.26487569  0.31478461  0.02137853    -0.10760
C32         C  0.23506684  0.31127705  0.50530010     0.03910
C33         C  0.21499479  0.33743181  0.50037349    -0.10180
H34         H  0.26893129  0.39433799  0.02243502     0.09510
H35         H  0.27858045  0.29337216  0.02526687     0.07040
H36         H  0.19106644  0.33441335  0.48944818     0.06880
C37         C  0.36216048  0.02239288  0.31807424     0.03920
C38         C  0.32817039  0.02093052  0.32299271    -0.12230
C39         C  0.30699059  0.00960627  0.29872474     0.01420
C40         C  0.32138809  0.99788952  0.27080352    -0.10760
C41         C  0.35206765  0.00930269  0.26233968     0.03910
C42         C  0.37375650  0.01719780  0.28701604    -0.10180
H43         H  0.31830500  0.03023378  0.34487695     0.09510
H44         H  0.30586176  0.98896872  0.25168792     0.07040
H45         H  0.39879476  0.02196599  0.28124397     0.06880
C46         C  0.22651311  0.04785850  0.32220560     0.03920
C47         C  0.25329528  0.02648533  0.32406184    -0.12230
C48         C  0.27220618  0.02099625  0.29691003     0.01420
C49         C  0.26063145  0.03363857  0.26772470    -0.10760
C50         C  0.23908512  0.05916759  0.26690884     0.03910
C51         C  0.22219665  0.06666860  0.29438891    -0.10180
H52         H  0.25927103  0.01396419  0.34607451     0.09510
H53         H  0.27171534  0.02729258  0.24549167     0.07040
H54         H  0.20471726  0.08589607  0.29368466     0.06880
C55         C  0.22605430  0.06723047  0.18158308     0.03920
C56         C  0.21575299  0.07029651  0.21329800    -0.12230
C57         C  0.23823252  0.07839974  0.23732198     0.01420
C58         C  0.26864795  0.08946562  0.22793585    -0.10760
C59         C  0.28187781  0.07725387  0.19966982     0.03910
C60         C  0.25961323  0.06856448  0.17515400    -0.10180
H61         H  0.19126026  0.06376577  0.21961784     0.09510
H62         H  0.28483315  0.09826104  0.24657638     0.07040
H63         H  0.26806474  0.06080685  0.15210605     0.06880
C64         C  0.36336807  0.03866422  0.17709335     0.03920
C65         C  0.37147995  0.02389793  0.20670980    -0.12230
C66         C  0.35185777  0.02908597  0.23296524     0.01420
C67         C  0.32817316  0.05271677  0.23088350    -0.10760
C68         C  0.31577360  0.06350529  0.20118705     0.03910
C69         C  0.33344117  0.05551696  0.17393420    -0.10180
H70         H  0.39280318  0.00895806  0.20961024     0.09510
H71         H  0.31667060  0.05894922  0.25290025     0.07040
H72         H  0.32485802  0.06350501  0.15053896     0.06880
C73         C  0.05312559  0.22195583  0.31995522     0.03920
C74         C  0.06565649  0.21777270  0.28878440    -0.12230
C75         C  0.07189096  0.24417459  0.26924657     0.01420
C76         C  0.06771214  0.27390348  0.28318870    -0.10760
C77         C  0.04945871  0.27812513  0.31057632     0.03910
C78         C  0.04283874  0.25208819  0.32972118    -0.10180
H79         H  0.07038083  0.19430703  0.28006661     0.09510
H80         H  0.07357081  0.29512479  0.27053886     0.07040
H81         H  0.02988276  0.25511137  0.35183881     0.06880
C82         C  0.04105970  0.36480347  0.32277749     0.03920
C83         C  0.04640311  0.33301796  0.33171500    -0.12230
C84         C  0.03289557  0.30911761  0.31300837     0.01420
C85         C  0.01385035  0.31803751  0.28614107    -0.10760
C86         C  0.02194377  0.34602061  0.27010072     0.03910
C87         C  0.03168450  0.37110921  0.29020284    -0.10180
H88         H  0.06049131  0.32704452  0.35319610     0.09510
H89         H  0.00091182  0.29969013  0.27354379     0.07040
H90         H  0.03218821  0.39471269  0.28066567     0.06880
C91         C  0.05733295  0.22493174  0.18017245     0.03920
C92         C  0.05890681  0.25657772  0.16921167    -0.12230
C93         C  0.07011177  0.27998039  0.18986598     0.01420
C94         C  0.08733457  0.27000327  0.21744870    -0.10760
C95         C  0.07652979  0.24286106  0.23334963     0.03910
C96         C  0.06194432  0.21960279  0.21377359    -0.10180
H97         H  0.05174386  0.26353811  0.14516526     0.09510
H98         H  0.10117794  0.28754084  0.23031425     0.07040
H99         H  0.05381762  0.19789334  0.22440564     0.06880
C100        C  0.04754953  0.36697999  0.18300791     0.03920
C101        C  0.03741724  0.37073044  0.21537806    -0.12230
C102        C  0.02941136  0.34444856  0.23448812     0.01420
C103        C  0.03447413  0.31465262  0.22080111    -0.10760
C104        C  0.05202376  0.31049329  0.19290205     0.03910
C105        C  0.05544254  0.33616822  0.17246722    -0.10180
H106        H  0.03569849  0.39394759  0.22551226     0.09510
H107        H  0.02905263  0.29339905  0.23350930     0.07040
H108        H  0.06444104  0.33179128  0.14878024     0.06880
O109        O  0.49193435  0.45624996  0.99900781    -0.85700
O110        O  0.48929648  0.13465224  0.49953345    -0.85860
O111        O  0.45131228  0.04227400  0.04861295    -0.87530
O112        O  0.45266295  0.04484225  0.44642931    -0.86290
O113        O  0.49160301  0.04181207  0.40815064    -0.85880
O114        O  0.48988703  0.04164911  0.08930396    -0.87250
O115        O  0.45098713  0.09566912  0.49768842    -0.85730
O116        O  0.45287270  0.49520607  0.49768409    -0.85310
Zr117      Zr  0.47962574  0.04546240  0.49856988     2.84310
O118        O  0.01144916  0.07724763  0.46633297    -1.07290
O119        O  0.01185486  0.01368529  0.03266584    -1.08020
C120        C  0.46192542  0.46618071  0.99786051     1.07410
C121        C  0.45960657  0.12471412  0.49841010     1.07350
C122        C  0.46021031  0.04067985  0.07834862     1.10340
C123        C  0.46165863  0.04236035  0.41717533     1.08110
H124        H  0.99631836  0.09087674  0.04509757     0.33670
O125        O  0.01035160  0.07806315  0.03215093    -1.28240
H126        H  0.99948147  0.99942522  0.45445204     0.33350
O127        O  0.01268398  0.01279967  0.46797381    -1.29920
O128        O  0.09650374  0.13488072  0.50082345    -0.85690
O129        O  0.10002515  0.45736641  0.00166353    -0.87190
O130        O  0.04374971  0.09777610  0.09117394    -0.85770
O131        O  0.04395311  0.09554133  0.40838493    -0.85820
O132        O  0.04778420  0.49261970  0.41021103    -0.85530
O133        O  0.04723151  0.49603375  0.09350027    -0.85340
O134        O  0.13518024  0.05016635  0.05556596    -0.85710
O135        O  0.13722042  0.04923740  0.45165485    -0.85170
O136        O  0.09570397  0.04782739  0.09364255    -0.86230
O137        O  0.09845068  0.04574067  0.41208165    -0.85390
O138        O  0.04656739  0.13551099  0.05206179    -0.85790
O139        O  0.04741051  0.45692978  0.05590714    -0.85510
O140        O  0.04996716  0.45584801  0.45036030    -0.85160
O141        O  0.04362808  0.13436017  0.44661265    -0.85570
O142        O  0.13643345  0.09730335  0.49995461    -0.85870
O143        O  0.13826235  0.49651343  0.00256686    -0.87200
Zr144      Zr  0.04320071  0.10953495  0.49984588     2.83100
Zr145      Zr  0.04575313  0.48164805  0.00219100     2.83500
Zr146      Zr  0.04351298  0.04622276  0.06543487     2.84090
Zr147      Zr  0.04477230  0.04448403  0.43574324     2.83360
Zr148      Zr  0.10964189  0.04664675  0.50249719     2.84220
O149        O  0.07801897  0.01368019  0.46998887    -1.07780
O150        O  0.07602672  0.07815863  0.03364154    -1.07280
C151        C  0.12674992  0.12621227  0.49972529     1.07380
C152        C  0.12966210  0.46745120  0.00196392     1.10000
C153        C  0.04616453  0.12668188  0.08178627     1.07560
C154        C  0.04410530  0.12460020  0.41728638     1.07920
C155        C  0.04969393  0.46383051  0.42042549     1.07500
C156        C  0.04811826  0.46686283  0.08528691     1.07050
C157        C  0.12545420  0.05001825  0.08478587     1.07480
C158        C  0.12833190  0.04863266  0.42185636     1.06990
H159        H  0.09188879  0.00195287  0.04858633     0.33670
O160        O  0.07773288  0.01449901  0.03473561    -1.28870
H161        H  0.08957366  0.09052558  0.45544804     0.33690
O162        O  0.07624590  0.07738864  0.46864781    -1.30260
C163        C  0.05023878  0.39479330  0.16021553    -0.04550
C164        C  0.07474249  0.39572443  0.13657741    -0.01660
C165        C  0.07260853  0.41769536  0.11099939     0.03330
C166        C  0.05013935  0.44298187  0.11188207    -0.04550
C167        C  0.03030443  0.44571361  0.13904070    -0.01650
C168        C  0.02753721  0.42026042  0.16064733     0.03320
C169        C  0.10338355  0.37555892  0.13918696     0.37970
C170        C  0.01374683  0.47504617  0.14599947     0.37960
C171        C  0.99996750  0.42020205  0.18179233     0.36390
C172        C  0.09475855  0.41489859  0.08456825     0.36390
N173        N  0.97777615  0.42044154  0.19841703    -0.38430
N174        N  0.11223910  0.41213198  0.06339757    -0.38430
N175        N  0.00147175  0.99867746  0.15249303    -0.37880
N176        N  0.12633518  0.35960776  0.14112346    -0.37880
C177        C  0.05145725  0.19824166  0.15682615    -0.04550
C178        C  0.06872959  0.16922232  0.16026949    -0.01660
C179        C  0.06549800  0.14545388  0.13681185     0.03330
C180        C  0.04865829  0.15155690  0.10730650    -0.04550
C181        C  0.03400212  0.18158326  0.10280677    -0.01650
C182        C  0.03184184  0.20268658  0.12867421     0.03320
C183        C  0.09117913  0.16368490  0.18714569     0.37970
C184        C  0.02259538  0.19207657  0.07134005     0.37960
C185        C  0.00769645  0.22776342  0.12657133     0.36390
C186        C  0.08154185  0.11538958  0.14276069     0.36390
N187        N  0.98821409  0.24755779  0.12474274    -0.38430
N188        N  0.09426135  0.09157504  0.14841678    -0.38430
N189        N  0.01417873  0.20096708  0.04619563    -0.37880
N190        N  0.10910611  0.15892168  0.20846521    -0.37880
C191        C  0.04521165  0.39007919  0.34774239    -0.04550
C192        C  0.03206297  0.38559813  0.37861484    -0.01660
C193        C  0.03708167  0.40786582  0.40307640     0.03330
C194        C  0.05050681  0.43768533  0.39602263    -0.04550
C195        C  0.06388995  0.44217796  0.36521841    -0.01650
C196        C  0.06234469  0.41815027  0.34178003     0.03320
C197        C  0.01182129  0.35860167  0.38534113     0.37970
C198        C  0.08122013  0.47071431  0.35792493     0.37960
C199        C  0.07959752  0.42207615  0.31208378     0.36390
C200        C  0.02855858  0.39919051  0.43554448     0.36390
N201        N  0.09344447  0.42533655  0.28845639    -0.38430
N202        N  0.02209316  0.39185031  0.46137175    -0.38430
N203        N  0.09529236  0.99324678  0.35167944    -0.37880
N204        N  0.99565519  0.33720550  0.39089077    -0.37880
C205        C  0.04626128  0.14878477  0.39163741    -0.04550
C206        C  0.07698119  0.16035110  0.38299747    -0.01640
C207        C  0.07919829  0.18394161  0.35921747     0.03330
C208        C  0.05084493  0.19516295  0.34288659    -0.04550
C209        C  0.02023686  0.18294974  0.35091269    -0.01650
C210        C  0.01791513  0.16037866  0.37568786     0.03320
C211        C  0.10632265  0.14815342  0.39882756     0.37970
C212        C  0.49111636  0.19365595  0.33363717     0.37960
C213        C  0.48621616  0.14981152  0.38529846     0.36390
C214        C  0.11052392  0.19769055  0.35250801     0.36390
N215        N  0.46065469  0.14171874  0.39267211    -0.38430
N216        N  0.13541649  0.20893127  0.34728503    -0.38430
N217        N  0.46790606  0.20206467  0.31973569    -0.37880
N218        N  0.12971671  0.13836627  0.41141583    -0.37880
C219        C  0.38658857  0.03788860  0.15001433    -0.04550
C220        C  0.39291656  0.06585453  0.13266125    -0.01660
C221        C  0.41410461  0.06516341  0.10685215     0.03330
C222        C  0.43396550  0.03874420  0.10183253    -0.04550
C223        C  0.42757941  0.01052823  0.11825496    -0.01650
C224        C  0.40295822  0.00974408  0.14134460     0.03320
C225        C  0.37895577  0.09593000  0.14167231     0.37970
C226        C  0.44373522  0.48167492  0.10883101     0.37960
C227        C  0.39372963  0.47976309  0.15491158     0.36390
C228        C  0.41234493  0.09010260  0.08324868     0.36390
N229        N  0.38647829  0.45577430  0.16566495    -0.38430
N230        N  0.40877935  0.10896031  0.06346322    -0.38430
N231        N  0.45600196  0.45851266  0.10082654    -0.37880
N232        N  0.36797330  0.11999591  0.14869586    -0.37880
C233        C  0.20166022  0.06125156  0.15572649    -0.04550
C234        C  0.19502372  0.08503804  0.13276269    -0.01660
C235        C  0.16887428  0.08184860  0.11079152     0.03330
C236        C  0.15065669  0.05397227  0.11010368    -0.04550
C237        C  0.15653938  0.03048685  0.13357742    -0.01650
C238        C  0.18229949  0.03394273  0.15616148     0.03320
C239        C  0.21435246  0.11340562  0.13247762     0.37970
C240        C  0.13563504  0.00323948  0.13504355     0.37960
C241        C  0.18907471  0.00929544  0.17959742     0.36390
C242        C  0.15818566  0.10865927  0.09155071     0.36390
N243        N  0.19441042  0.48962031  0.19828125    -0.38430
N244        N  0.14895163  0.13036322  0.07709176    -0.38430
N245        N  0.11890399  0.48155312  0.13634334    -0.37880
N246        N  0.22993083  0.13590994  0.13213413    -0.37880
C247        C  0.15417319  0.05131329  0.39681951    -0.04550
C248        C  0.18813607  0.05072175  0.40502021    -0.01660
C249        C  0.21167046  0.05202648  0.38080779     0.03330
C250        C  0.20204518  0.04992245  0.34818488    -0.04550
C251        C  0.16836896  0.04996138  0.34008189    -0.01650
C252        C  0.14507431  0.05417657  0.36384802     0.03320
C253        C  0.19966573  0.04905899  0.43813145     0.37970
C254        C  0.15708911  0.04426102  0.30736041     0.37960
C255        C  0.11222082  0.06323954  0.35360157     0.36390
C256        C  0.24573172  0.05640202  0.38965537     0.36390
N257        N  0.08621673  0.07075802  0.34522154    -0.38430
N258        N  0.27284569  0.05999878  0.39676775    -0.38430
N259        N  0.14800480  0.03956792  0.28138350    -0.37880
N260        N  0.20916464  0.04762086  0.46443190    -0.37880
C261        C  0.38547323  0.03064402  0.34469956    -0.04550
C262        C  0.38425041  0.01444049  0.37427592    -0.01660
C263        C  0.40793540  0.01983720  0.39845724     0.03330
C264        C  0.43522052  0.03902825  0.39235279    -0.04550
C265        C  0.43667202  0.05492875  0.36256576    -0.01650
C266        C  0.41075058  0.05255739  0.33995808     0.03320
C267        C  0.35937134  0.99104912  0.37972919     0.37970
C268        C  0.46497445  0.07329520  0.35456056     0.37960
C269        C  0.40970800  0.07357844  0.31242091     0.36390
C270        C  0.40399873  0.00456088  0.42924036     0.36390
N271        N  0.40891204  0.09048408  0.29058913    -0.38430
N272        N  0.39921947  0.49244487  0.45351914    -0.38430
N273        N  0.98782678  0.08721766  0.34750473    -0.37880
N274        N  0.33958824  0.47244914  0.38424896    -0.37880
C275        C  0.15616932  0.44365046  0.00239077    -0.04550
C276        C  0.16126913  0.42438346  0.47557376    -0.01660
C277        C  0.18580134  0.40093458  0.47671295     0.03330
C278        C  0.20404879  0.39529750  0.00545212    -0.04550
C279        C  0.19938472  0.41530503  0.03196974    -0.01650
C280        C  0.17643791  0.44006365  0.02989439     0.03320
C281        C  0.14186074  0.42929375  0.44647328     0.37970
C282        C  0.21695517  0.40968803  0.06206422     0.37960
C283        C  0.17331515  0.46157686  0.05641954     0.36390
C284        C  0.19261520  0.38314108  0.44803277     0.36390
N285        N  0.17131103  0.47896198  0.07745539    -0.38430
N286        N  0.19802284  0.36894635  0.42515768    -0.38430
N287        N  0.23090151  0.40526450  0.08610066    -0.37880
N288        N  0.12656023  0.43316335  0.42314241    -0.37880
C289        C  0.15218133  0.15143250  0.49729937    -0.04550
C290        C  0.18464101  0.14629340  0.00827608    -0.01660
C291        C  0.20782221  0.17067936  0.00716760     0.03330
C292        C  0.19991851  0.19968822  0.49232611    -0.04550
C293        C  0.16798837  0.20415920  0.47940946    -0.01650
C294        C  0.14405642  0.18098862  0.48307322     0.03320
C295        C  0.19514729  0.11591850  0.02092841     0.37970
C296        C  0.15967052  0.23245166  0.46116301     0.37960
C297        C  0.11125294  0.18797488  0.47109661     0.36390
C298        C  0.23962570  0.16607705  0.02244847     0.36390
N299        N  0.08519911  0.19407919  0.46171914    -0.38430
N300        N  0.26491999  0.16227476  0.03473654    -0.38430
N301        N  0.15295404  0.25495056  0.44668094    -0.37880
N302        N  0.20386991  0.09171968  0.03077913    -0.37880
C303        C  0.43314929  0.14861237  0.49761062    -0.04550
C304        C  0.42891071  0.16900960  0.02371133    -0.01660
C305        C  0.40439204  0.19240237  0.02233542     0.03330
C306        C  0.38562926  0.19730978  0.49375194    -0.04550
C307        C  0.38919207  0.17595226  0.46810886    -0.01650
C308        C  0.41156272  0.15072540  0.47089760     0.03320
C309        C  0.44745593  0.16389527  0.05328862     0.37970
C310        C  0.37098418  0.18039697  0.43819734     0.37960
C311        C  0.41168302  0.12650921  0.44659574     0.36390
C312        C  0.39781246  0.21054970  0.05087437     0.36390
N313        N  0.41095426  0.10683863  0.42758291    -0.38430
N314        N  0.39268031  0.22497783  0.07366430    -0.38430
N315        N  0.35652067  0.18385300  0.41429253    -0.37880
N316        N  0.46085210  0.15894965  0.07750547    -0.37880
C317        C  0.43536649  0.44260371  0.99730613    -0.04550
C318        C  0.43270140  0.42032405  0.47254518    -0.01660
C319        C  0.40917869  0.39628532  0.47405444     0.03330
C320        C  0.38855408  0.39410807  0.00080152    -0.04550
C321        C  0.38934801  0.41849846  0.02379076    -0.01650
C322        C  0.41091144  0.44366591  0.02048091     0.03320
C323        C  0.45058469  0.42510894  0.44341818     0.37970
C324        C  0.36886281  0.41766643  0.05172185     0.37960
C325        C  0.40502478  0.47207005  0.03841843     0.36390
C326        C  0.40531921  0.37487357  0.44737260     0.36390
N327        N  0.39829356  0.99502929  0.05144669    -0.38430
N328        N  0.40233485  0.35784283  0.42601341    -0.38430
N329        N  0.35261148  0.41722550  0.07402341    -0.37880
N330        N  0.96367155  0.42973264  0.41960888    -0.37880
C331        C  0.36673153  0.36657323  0.50568025     0.03920
C332        C  0.37852778  0.33543233  0.00280979    -0.12230
C333        C  0.36003182  0.31066841  0.01455595     0.01420
C334        C  0.33418908  0.31832354  0.53446668    -0.10760
C335        C  0.31616908  0.34591956  0.52739795     0.03910
C336        C  0.33371715  0.37097264  0.51407299    -0.10180
H337        H  0.40128769  0.33029786  0.99129663     0.09510
H338        H  0.32344852  0.29928473  0.54765393     0.07040
H339        H  0.32222855  0.39364362  0.50999153     0.06880
C340        C  0.36357751  0.22536459  0.99020043     0.03920
C341        C  0.37531920  0.25522134  0.99911609    -0.12230
C342        C  0.35533550  0.28154353  0.99556375     0.01420
C343        C  0.32547438  0.27864630  0.97911350    -0.10760
C344        C  0.31094134  0.24919799  0.97336527     0.03910
C345        C  0.33075300  0.22238169  0.97913624    -0.10180
H346        H  0.39941490  0.25790201  0.00976117     0.09510
H347        H  0.31214280  0.30027315  0.97552179     0.07040
H348        H  0.32086030  0.19919639  0.97552412     0.06880
C349        C  0.22393072  0.22571215  0.98958572     0.03920
C350        C  0.25559984  0.22125464  0.97711017    -0.12230
C351        C  0.27415438  0.24775729  0.96853916     0.01420
C352        C  0.25648460  0.27609916  0.96510804    -0.10760
C353        C  0.23158056  0.28199573  0.98669622     0.03910
C354        C  0.21476237  0.25635215  0.99875590    -0.10180
H355        H  0.26554651  0.19787269  0.97444801     0.09510
H356        H  0.26705077  0.29615726  0.95341741     0.07040
H357        H  0.19435388  0.26013490  0.01433756     0.06880
C358        C  0.22646136  0.36753204  0.50860968     0.03920
C359        C  0.25931702  0.37100754  0.51917571    -0.12230
C360        C  0.27941851  0.34441196  0.52499156     0.01420
C361        C  0.26490345  0.31480107  0.52138006    -0.10760
C362        C  0.23503169  0.31125185  0.00531185     0.03910
C363        C  0.21496198  0.33741137  0.00037377    -0.10180
H364        H  0.26895668  0.39435366  0.52246165     0.09510
H365        H  0.27860992  0.29338756  0.52525675     0.07040
H366        H  0.19103301  0.33439320  0.98944991     0.06880
C367        C  0.36215705  0.02239015  0.81807532     0.03920
C368        C  0.32816743  0.02093065  0.82299649    -0.12230
C369        C  0.30698465  0.00960692  0.79873176     0.01420
C370        C  0.32137940  0.99789024  0.77080770    -0.10760
C371        C  0.35206207  0.00929713  0.76234212     0.03910
C372        C  0.37375202  0.01719138  0.78701758    -0.10180
H373        H  0.31830457  0.03023492  0.84488143     0.09510
H374        H  0.30585090  0.98897143  0.75169278     0.07040
H375        H  0.39879067  0.02195747  0.78124502     0.06880
C376        C  0.22650119  0.04785533  0.82222481     0.03920
C377        C  0.25328768  0.02648463  0.82407800    -0.12230
C378        C  0.27219928  0.02099766  0.79692394     0.01420
C379        C  0.26062569  0.03364365  0.76774112    -0.10760
C380        C  0.23908212  0.05917371  0.76692801     0.03910
C381        C  0.22218563  0.06666742  0.79440742    -0.10180
H382        H  0.25926579  0.01396319  0.84608981     0.09510
H383        H  0.27171071  0.02730073  0.74550766     0.07040
H384        H  0.20470487  0.08589360  0.79370321     0.06880
C385        C  0.22606084  0.06723717  0.68160248     0.03920
C386        C  0.21575814  0.07030535  0.71331619    -0.12230
C387        C  0.23823646  0.07840707  0.73734077     0.01420
C388        C  0.26865519  0.08946761  0.72795423    -0.10760
C389        C  0.28188351  0.07725846  0.69968487     0.03910
C390        C  0.25961828  0.06856987  0.67517107    -0.10180
H391        H  0.19126445  0.06377648  0.71963478     0.09510
H392        H  0.28484166  0.09826055  0.74659484     0.07040
H393        H  0.26806801  0.06081223  0.65212233     0.06880
C394        C  0.36336958  0.03866485  0.67709578     0.03920
C395        C  0.37147889  0.02389328  0.70671087    -0.12230
C396        C  0.35185636  0.02908017  0.73296725     0.01420
C397        C  0.32817734  0.05271538  0.73088938    -0.10760
C398        C  0.31577881  0.06350912  0.70119566     0.03910
C399        C  0.33344419  0.05552158  0.67394025    -0.10180
H400        H  0.39280025  0.00895081  0.70960989     0.09510
H401        H  0.31667578  0.05894623  0.75290714     0.07040
H402        H  0.32486020  0.06351246  0.65054626     0.06880
C403        C  0.05311629  0.22195221  0.81995713     0.03920
C404        C  0.06565068  0.21776931  0.78878692    -0.12230
C405        C  0.07188622  0.24417169  0.76924883     0.01420
C406        C  0.06770422  0.27389998  0.78318964    -0.10760
C407        C  0.04944463  0.27812130  0.81057256     0.03910
C408        C  0.04282467  0.25208487  0.82971910    -0.10180
H409        H  0.07037678  0.19430378  0.78006971     0.09510
H410        H  0.07356519  0.29512126  0.77054082     0.07040
H411        H  0.02986555  0.25510871  0.85183478     0.06880
C412        C  0.04105735  0.36479938  0.82277044     0.03920
C413        C  0.04639473  0.33301333  0.83170766    -0.12230
C414        C  0.03288405  0.30911537  0.81300094     0.01420
C415        C  0.01384454  0.31803841  0.78613016    -0.10760
C416        C  0.02194239  0.34602216  0.77009177     0.03910
C417        C  0.03168549  0.37110817  0.79019569    -0.10180
H418        H  0.06048021  0.32703755  0.85318983     0.09510
H419        H  0.00090552  0.29969283  0.77353046     0.07040
H420        H  0.03219402  0.39471192  0.78065961     0.06880
C421        C  0.05733389  0.22493565  0.68017308     0.03920
C422        C  0.05891458  0.25658083  0.66921187    -0.12230
C423        C  0.07011991  0.27998245  0.68986684     0.01420
C424        C  0.08733681  0.27000329  0.71745302    -0.10760
C425        C  0.07652835  0.24286064  0.73335204     0.03910
C426        C  0.06194144  0.21960529  0.71377421    -0.10180
H427        H  0.05175558  0.26354144  0.64516443     0.09510
H428        H  0.10117991  0.28753951  0.73032086     0.07040
H429        H  0.05381092  0.19789664  0.72440506     0.06880
C430        C  0.04755179  0.36698364  0.68299822     0.03920
C431        C  0.03741594  0.37073454  0.71536789    -0.12230
C432        C  0.02941229  0.34445213  0.73447939     0.01420
C433        C  0.03447949  0.31465650  0.72079470    -0.10760
C434        C  0.05203338  0.31049707  0.69289900     0.03910
C435        C  0.05545037  0.33617109  0.67246161    -0.10180
H436        H  0.03569311  0.39395190  0.72550098     0.09510
H437        H  0.02905760  0.29340317  0.73350308     0.07040
H438        H  0.06445075  0.33179261  0.64877573     0.06880
O439        O  0.49193330  0.45625367  0.49900855    -0.85700
O440        O  0.48928953  0.13464823  0.99953257    -0.85860
O441        O  0.45131728  0.04227941  0.54861307    -0.87530
O442        O  0.45265852  0.04483756  0.94642850    -0.86290
O443        O  0.49159932  0.04180912  0.90815032    -0.85880
O444        O  0.48989143  0.04165136  0.58930439    -0.87250
O445        O  0.45098110  0.09566413  0.99768735    -0.85730
O446        O  0.45287259  0.49520097  0.99768416    -0.85310
Zr447      Zr  0.47961950  0.04545624  0.99856964     2.84310
O448        O  0.01134882  0.07722631  0.96630988    -1.07290
O449        O  0.01189899  0.01370469  0.53266607    -1.08020
C450        C  0.46192532  0.46618606  0.49786039     1.07410
C451        C  0.45960010  0.12470945  0.99840872     1.07350
C452        C  0.46021460  0.04068354  0.57834894     1.10340
C453        C  0.46165489  0.04235665  0.91717468     1.08110
H454        H  0.99642616  0.09091256  0.54506980     0.33670
O455        O  0.01045248  0.07808925  0.53212614    -1.28240
H456        H  0.99944505  0.99940441  0.95445159     0.33350
O457        O  0.01264180  0.01278169  0.96797588    -1.29920
O458        O  0.09617204  0.13511012  0.00084965    -0.85690
O459        O  0.10005334  0.45736030  0.50166145    -0.87190
O460        O  0.04378138  0.09780478  0.59114162    -0.85770
O461        O  0.04393746  0.09552238  0.90837076    -0.85820
O462        O  0.04774875  0.49260744  0.91020810    -0.85530
O463        O  0.04727447  0.49605043  0.59349850    -0.85340
O464        O  0.13520790  0.05016896  0.55558991    -0.85710
O465        O  0.13719479  0.04926073  0.95169220    -0.85170
O466        O  0.09572885  0.04782313  0.59366324    -0.86230
O467        O  0.09842870  0.04574448  0.91211637    -0.85390
O468        O  0.04668493  0.13554854  0.55204363    -0.85790
O469        O  0.04744301  0.45694879  0.55590310    -0.85510
O470        O  0.04994228  0.45583673  0.95035898    -0.85160
O471        O  0.04353845  0.13433372  0.94660367    -0.85570
O472        O  0.13605912  0.09749175  0.99996607    -0.85870
O473        O  0.13832064  0.49647927  0.50256472    -0.87200
Zr474      Zr  0.04305136  0.10952358  0.99984853     2.83100
Zr475      Zr  0.04579870  0.48166628  0.50218875     2.83500
Zr476      Zr  0.04356808  0.04623614  0.56542616     2.84090
Zr477      Zr  0.04472307  0.04447535  0.93574342     2.83360
Zr478      Zr  0.10955663  0.04667653  0.00250234     2.84220
O479        O  0.07796747  0.01368569  0.96999532    -1.07780
O480        O  0.07613476  0.07814918  0.53364829    -1.07280
C481        C  0.12639897  0.12641063  0.99973944     1.07380
C482        C  0.12969530  0.46742840  0.50196352     1.10000
C483        C  0.04622536  0.12671168  0.58176385     1.07560
C484        C  0.04406867  0.12457970  0.91727667     1.07920
C485        C  0.04967087  0.46381908  0.92042377     1.07500
C486        C  0.04814942  0.46687936  0.58528338     1.07050
C487        C  0.12547674  0.05002066  0.58480851     1.07480
C488        C  0.12831098  0.04864273  0.92189205     1.06990
H489        H  0.09193427  0.00194351  0.54858977     0.33670
O490        O  0.07778858  0.01449552  0.53473434    -1.28870
H491        H  0.08946720  0.09054288  0.95546671     0.33690
O492        O  0.07614285  0.07739971  0.96866266    -1.30260
C493        C  0.05024191  0.39479701  0.66020342    -0.04550
C494        C  0.07474747  0.39572774  0.63656706    -0.01660
C495        C  0.07261914  0.41770097  0.61099075     0.03330
C496        C  0.05015681  0.44299301  0.61187481    -0.04550
C497        C  0.03031461  0.44572159  0.63902857    -0.01650
C498        C  0.02754154  0.42026568  0.66063253     0.03320
C499        C  0.10338770  0.37556177  0.63917860     0.37970
C500        C  0.01375657  0.47505400  0.64598600     0.37960
C501        C  0.99996969  0.42020700  0.68177465     0.36390
C502        C  0.09476711  0.41489855  0.58455846     0.36390
N503        N  0.97777751  0.42044458  0.69839833    -0.38430
N504        N  0.11224469  0.41212623  0.56338618    -0.38430
N505        N  0.00147518  0.99868299  0.65248491    -0.37880
N506        N  0.12633928  0.35961080  0.64111695    -0.37880
C507        C  0.05145827  0.19824713  0.65682605    -0.04550
C508        C  0.06872835  0.16922692  0.66027127    -0.01660
C509        C  0.06550643  0.14546388  0.63680824     0.03330
C510        C  0.04868695  0.15157594  0.60729491    -0.04550
C511        C  0.03401961  0.18159741  0.60279903    -0.01650
C512        C  0.03184825  0.20269512  0.62867070     0.03320
C513        C  0.09117211  0.16368501  0.68715099     0.37970
C514        C  0.02260959  0.19208882  0.57133295     0.37960
C515        C  0.00770312  0.22777244  0.62656674     0.36390
C516        C  0.08153946  0.11539493  0.64276081     0.36390
N517        N  0.98822241  0.24756840  0.62473805    -0.38430
N518        N  0.09424831  0.09157586  0.64841969    -0.38430
N519        N  0.01418941  0.20097830  0.54618925    -0.37880
N520        N  0.10909656  0.15891717  0.70847146    -0.37880
C521        C  0.04520929  0.39007205  0.84773759    -0.04550
C522        C  0.03205675  0.38558857  0.87860799    -0.01660
C523        C  0.03707454  0.40785310  0.90307205     0.03330
C524        C  0.05049805  0.43767369  0.89602180    -0.04550
C525        C  0.06388847  0.44216780  0.86522093    -0.01650
C526        C  0.06234621  0.41814190  0.84178023     0.03320
C527        C  0.01180941  0.35859476  0.88532929     0.37970
C528        C  0.08122332  0.47070303  0.85793439     0.37960
C529        C  0.07960324  0.42206890  0.81208632     0.36390
C530        C  0.02855131  0.39917397  0.93553890     0.36390
N531        N  0.09345279  0.42532959  0.78846043    -0.38430
N532        N  0.02208614  0.39183089  0.96136537    -0.38430
N533        N  0.09528710  0.99324227  0.85168077    -0.37880
N534        N  0.99563821  0.33720144  0.89087588    -0.37880
C535        C  0.04624026  0.14877103  0.89163389    -0.04550
C536        C  0.07696267  0.16034089  0.88300248    -0.01640
C537        C  0.07918352  0.18393599  0.85922540     0.03330
C538        C  0.05083288  0.19515858  0.84288985    -0.04550
C539        C  0.02022384  0.18294471  0.85091142    -0.01650
C540        C  0.01789801  0.16037073  0.87568314     0.03320
C541        C  0.10630167  0.14814867  0.89884136     0.37970
C542        C  0.49111597  0.19365538  0.83363574     0.37960
C543        C  0.48621304  0.14981104  0.88529691     0.36390
C544        C  0.11050904  0.19768887  0.85252208     0.36390
N545        N  0.46065118  0.14171886  0.89266999    -0.38430
N546        N  0.13539932  0.20893521  0.84730064    -0.38430
N547        N  0.46790635  0.20206456  0.81973341    -0.37880
N548        N  0.12969699  0.13837072  0.91143507    -0.37880
C549        C  0.38659024  0.03788983  0.65001507    -0.04550
C550        C  0.39291825  0.06585594  0.63266169    -0.01660
C551        C  0.41410699  0.06516559  0.60685264     0.03330
C552        C  0.43396893  0.03874711  0.60183287    -0.04550
C553        C  0.42758198  0.01053061  0.61825411    -0.01650
C554        C  0.40296031  0.00974569  0.64134377     0.03320
C555        C  0.37895709  0.09593123  0.64167234     0.37970
C556        C  0.44373167  0.48167691  0.60883442     0.37960
C557        C  0.39372975  0.47976576  0.65491866     0.36390
C558        C  0.41234664  0.09010461  0.58324894     0.36390
N559        N  0.38647838  0.45577649  0.66567089    -0.38430
N560        N  0.40878048  0.10896193  0.56346315    -0.38430
N561        N  0.45599741  0.45851457  0.60082873    -0.37880
N562        N  0.36797433  0.11999717  0.64869534    -0.37880
C563        C  0.20166820  0.06125938  0.65574844    -0.04550
C564        C  0.19503434  0.08504594  0.63278381    -0.01660
C565        C  0.16888892  0.08185485  0.61081023     0.03330
C566        C  0.15067015  0.05397998  0.61012823    -0.04550
C567        C  0.15654804  0.03049574  0.63360357    -0.01650
C568        C  0.18230835  0.03395023  0.65618528     0.03320
C569        C  0.21436746  0.11341050  0.63249284     0.37970
C570        C  0.13564543  0.00324636  0.63506619     0.37960
C571        C  0.18908781  0.00929890  0.67961610     0.36390
C572        C  0.15821937  0.10865452  0.59154196     0.36390
N573        N  0.19443059  0.48962559  0.69831216    -0.38430
N574        N  0.14900240  0.13034635  0.57705358    -0.38430
N575        N  0.11893416  0.48155372  0.63636478    -0.37880
N576        N  0.22994872  0.13591273  0.63214128    -0.37880
C577        C  0.15415672  0.05131344  0.89685201    -0.04550
C578        C  0.18812111  0.05071801  0.90504881    -0.01660
C579        C  0.21165633  0.05202027  0.88083348     0.03330
C580        C  0.20203190  0.04991841  0.84820945    -0.04550
C581        C  0.16835462  0.04995942  0.84011064    -0.01650
C582        C  0.14505946  0.05417328  0.86387929     0.03320
C583        C  0.19965175  0.04905256  0.93815899     0.37970
C584        C  0.15707426  0.04426483  0.80738867     0.37960
C585        C  0.11220617  0.06323531  0.85363305     0.36390
C586        C  0.24571836  0.05639506  0.88967770     0.36390
N587        N  0.08620266  0.07075368  0.84525131    -0.38430
N588        N  0.27283424  0.05999227  0.89678233    -0.38430
N589        N  0.14799129  0.03957641  0.78141046    -0.37880
N590        N  0.20915582  0.04761139  0.96445750    -0.37880
C591        C  0.38547093  0.03064028  0.84469908    -0.04550
C592        C  0.38424833  0.01443595  0.87427482    -0.01660
C593        C  0.40793306  0.01983246  0.89845600     0.03330
C594        C  0.43521749  0.03902447  0.89235193    -0.04550
C595        C  0.43666906  0.05492548  0.86256514    -0.01650
C596        C  0.41074801  0.05255372  0.83995721     0.03320
C597        C  0.35936943  0.99104417  0.87972748     0.37970
C598        C  0.46497107  0.07329281  0.85456060     0.37960
C599        C  0.40970545  0.07357433  0.81241964     0.36390
C600        C  0.40399688  0.00455477  0.92923849     0.36390
N601        N  0.40890963  0.09047999  0.79058786    -0.38430
N602        N  0.39921983  0.49244394  0.95352488    -0.38430
N603        N  0.98781128  0.08720793  0.84750488    -0.37880
N604        N  0.33958435  0.47244790  0.88425989    -0.37880
C605        C  0.15618460  0.44362512  0.50239831    -0.04550
C606        C  0.16125252  0.42440207  0.97556778    -0.01660
C607        C  0.18577609  0.40093988  0.97670884     0.03330
C608        C  0.20407881  0.39530386  0.50545666    -0.04550
C609        C  0.19940472  0.41530227  0.53197838    -0.01650
C610        C  0.17645125  0.44004997  0.52990310     0.03320
C611        C  0.14185076  0.42931691  0.94646522     0.37970
C612        C  0.21696576  0.40968294  0.56207756     0.37960
C613        C  0.17331984  0.46156437  0.55642767     0.36390
C614        C  0.19259566  0.38315008  0.94802777     0.36390
N615        N  0.17130706  0.47895170  0.57746088    -0.38430
N616        N  0.19801460  0.36896014  0.92515229    -0.38430
N617        N  0.23090266  0.40525704  0.58611863    -0.37880
N618        N  0.12655684  0.43318806  0.92313065    -0.37880
C619        C  0.15186828  0.15158052  0.99729900    -0.04550
C620        C  0.18496275  0.14624663  0.50831342    -0.01660
C621        C  0.20806927  0.17070714  0.50721167     0.03330
C622        C  0.19975717  0.19968819  0.99229926    -0.04550
C623        C  0.16783820  0.20424132  0.97936908    -0.01650
C624        C  0.14382820  0.18114230  0.98304378     0.03320
C625        C  0.19554367  0.11592698  0.52104285     0.37970
C626        C  0.15962113  0.23254118  0.96109437     0.37960
C627        C  0.11105796  0.18818099  0.97099913     0.36390
C628        C  0.23988323  0.16622201  0.52251564     0.36390
N629        N  0.08504391  0.19433555  0.96154120    -0.38430
N630        N  0.26519151  0.16253549  0.53481226    -0.38430
N631        N  0.15299763  0.25505139  0.94659185    -0.37880
N632        N  0.20436661  0.09179303  0.53097898    -0.37880
C633        C  0.43314334  0.14860778  0.99760751    -0.04550
C634        C  0.42891560  0.16901146  0.52371609    -0.01660
C635        C  0.40439784  0.19240539  0.52234142     0.03330
C636        C  0.38561826  0.19729874  0.99374837    -0.04550
C637        C  0.38918540  0.17594486  0.96810438    -0.01650
C638        C  0.41155829  0.15072034  0.97089300     0.03320
C639        C  0.44746113  0.16389469  0.55329277     0.37970
C640        C  0.37097634  0.18039118  0.93819374     0.37960
C641        C  0.41167931  0.12650438  0.94659125     0.36390
C642        C  0.39781642  0.21054713  0.55088352     0.36390
N643        N  0.41094986  0.10683423  0.92757802    -0.38430
N644        N  0.39268452  0.22497199  0.57367565    -0.38430
N645        N  0.35651255  0.18384985  0.91428949    -0.37880
N646        N  0.46085824  0.15894711  0.57750871    -0.37880
C647        C  0.43536714  0.44261134  0.49730547    -0.04550
C648        C  0.43269963  0.42031686  0.97254555    -0.01660
C649        C  0.40917542  0.39627771  0.97405331     0.03330
C650        C  0.38856054  0.39411805  0.50080413    -0.04550
C651        C  0.38935230  0.41850749  0.52379293    -0.01650
C652        C  0.41091347  0.44367452  0.52048147     0.03320
C653        C  0.45058279  0.42510400  0.94341857     0.37970
C654        C  0.36886724  0.41767394  0.55172469     0.37960
C655        C  0.40502602  0.47207785  0.53841950     0.36390
C656        C  0.40531633  0.37486980  0.94736883     0.36390
N657        N  0.39829485  0.99504846  0.55144362    -0.38430
N658        N  0.40233281  0.35784224  0.92600695    -0.38430
N659        N  0.35261454  0.41722969  0.57402523    -0.37880
N660        N  0.96365331  0.42970135  0.91960852    -0.37880
C661        C  0.36671510  0.86655384  0.00566558     0.03920
C662        C  0.37855791  0.83544916  0.50283532    -0.12230
C663        C  0.36006841  0.81068432  0.51458329     0.01420
C664        C  0.33416327  0.81830360  0.03444189    -0.10760
C665        C  0.31614534  0.84590015  0.02737831     0.03910
C666        C  0.33370039  0.87095704  0.01406438    -0.10180
H667        H  0.40132191  0.83031860  0.49132772     0.09510
H668        H  0.32342548  0.79926674  0.04763399     0.07040
H669        H  0.32221622  0.89363178  0.00999434     0.06880
C670        C  0.36360377  0.72539070  0.49019876     0.03920
C671        C  0.37534862  0.75523898  0.49913902    -0.12230
C672        C  0.35537894  0.78157071  0.49557709     0.01420
C673        C  0.32553589  0.77869716  0.47909129    -0.10760
C674        C  0.31099754  0.74925895  0.47331887     0.03910
C675        C  0.33078991  0.72243056  0.47910089    -0.10180
H676        H  0.39943586  0.75790763  0.50980637     0.09510
H677        H  0.31221487  0.80033001  0.47549514     0.07040
H678        H  0.32089009  0.69925091  0.47547432     0.06880
C679        C  0.22402801  0.72575515  0.48955707     0.03920
C680        C  0.25567735  0.72132182  0.47704409    -0.12230
C681        C  0.27421577  0.74783023  0.46847831     0.01420
C682        C  0.25654079  0.77617243  0.46507259    -0.10760
C683        C  0.23162745  0.78204291  0.48666004     0.03910
C684        C  0.21482832  0.75638759  0.49871680    -0.10180
H685        H  0.26562779  0.69794386  0.47436543     0.09510
H686        H  0.26710695  0.79624426  0.45340560     0.07040
H687        H  0.19442600  0.76015379  0.51431033     0.06880
C688        C  0.22642934  0.86750872  0.00860198     0.03920
C689        C  0.25928973  0.87098325  0.01915420    -0.12230
C690        C  0.27939248  0.84438916  0.02497134     0.01420
C691        C  0.26487321  0.81477615  0.02137638    -0.10760
C692        C  0.23506778  0.81127813  0.50530203     0.03910
C693        C  0.21499575  0.83743280  0.50037556    -0.10180
H694        H  0.26893222  0.89432942  0.02243025     0.09510
H695        H  0.27857714  0.79336313  0.02526395     0.07040
H696        H  0.19106715  0.83441430  0.48945079     0.06880
C697        C  0.36215715  0.52239766  0.31807118     0.03920
C698        C  0.32816704  0.52093420  0.32298985    -0.12230
C699        C  0.30698746  0.50960898  0.29872207     0.01420
C700        C  0.32138535  0.49789179  0.27080134    -0.10760
C701        C  0.35206373  0.50930687  0.26233643     0.03910
C702        C  0.37375256  0.51720442  0.28701222    -0.10180
H703        H  0.31830150  0.53023678  0.34487431     0.09510
H704        H  0.30585949  0.48896886  0.25168647     0.07040
H705        H  0.39879033  0.52197392  0.28123947     0.06880
C706        C  0.22650837  0.54785941  0.32220108     0.03920
C707        C  0.25329176  0.52648773  0.32405859    -0.12230
C708        C  0.27220235  0.52099726  0.29690691     0.01420
C709        C  0.26062583  0.53363605  0.26772051    -0.10760
C710        C  0.23907772  0.55916370  0.26690255     0.03910
C711        C  0.22219000  0.56666666  0.29438256    -0.10180
H712        H  0.25926868  0.51396864  0.34607217     0.09510
H713        H  0.27170932  0.52728854  0.24548774     0.07040
H714        H  0.20470980  0.58589342  0.29367701     0.06880
C715        C  0.22604257  0.56722411  0.18157537     0.03920
C716        C  0.21574305  0.57028879  0.21329113    -0.12230
C717        C  0.23822335  0.57839338  0.23731391     0.01420
C718        C  0.26863761  0.58946036  0.22792597    -0.10760
C719        C  0.28186705  0.57724759  0.19966020     0.03910
C720        C  0.25960158  0.56855780  0.17514496    -0.10180
H721        H  0.19125078  0.56375769  0.21961220     0.09510
H722        H  0.28482282  0.59825797  0.24656535     0.07040
H723        H  0.26805244  0.56080066  0.15209660     0.06880
C724        C  0.36336124  0.53866162  0.17708698     0.03920
C725        C  0.37147434  0.52389846  0.20670476    -0.12230
C726        C  0.35185187  0.52908729  0.23295979     0.01420
C727        C  0.32816454  0.55271538  0.23087542    -0.10760
C728        C  0.31576368  0.56350017  0.20117791     0.03910
C729        C  0.33343241  0.55551129  0.17392584    -0.10180
H730        H  0.39279906  0.50896076  0.20960656     0.09510
H731        H  0.31666179  0.55894882  0.25289173     0.07040
H732        H  0.32484908  0.56349722  0.15052990     0.06880
C733        C  0.05312277  0.72195557  0.31995178     0.03920
C734        C  0.06564940  0.71777115  0.28877934    -0.12230
C735        C  0.07188284  0.74417238  0.26924010     0.01420
C736        C  0.06770733  0.77390173  0.28318215    -0.10760
C737        C  0.04945779  0.77812487  0.31057215     0.03910
C738        C  0.04283898  0.75208864  0.32971844    -0.10180
H739        H  0.07037111  0.69430507  0.28006136     0.09510
H740        H  0.07356548  0.79512242  0.27053098     0.07040
H741        H  0.02988589  0.75511286  0.35183760     0.06880
C742        C  0.04106206  0.86480352  0.32277588     0.03920
C743        C  0.04640532  0.83301771  0.33171245    -0.12230
C744        C  0.03289642  0.80911815  0.31300567     0.01420
C745        C  0.01384983  0.81803927  0.28613977    -0.10760
C746        C  0.02194379  0.84602207  0.27009921     0.03910
C747        C  0.03168642  0.87111008  0.29020139    -0.10180
H748        H  0.06049381  0.82704351  0.35319315     0.09510
H749        H  0.00090909  0.79969271  0.27354350     0.07040
H750        H  0.03219066  0.89471369  0.28066459     0.06880
C751        C  0.05731002  0.72493037  0.18016813     0.03920
C752        C  0.05888487  0.75657590  0.16920666    -0.12230
C753        C  0.07009630  0.77997770  0.18985888     0.01420
C754        C  0.08732177  0.76999935  0.21743971    -0.10760
C755        C  0.07651689  0.74285814  0.23334242     0.03910
C756        C  0.06192683  0.71960088  0.21376854    -0.10180
H757        H  0.05171715  0.76353622  0.14516140     0.09510
H758        H  0.10116835  0.78753585  0.23030350     0.07040
H759        H  0.05380143  0.69789135  0.22440152     0.06880
C760        C  0.04754735  0.86698041  0.18300532     0.03920
C761        C  0.03741699  0.87073136  0.21537605    -0.12230
C762        C  0.02940864  0.84445002  0.23448587     0.01420
C763        C  0.03446606  0.81465380  0.22079738    -0.10760
C764        C  0.05201299  0.81049287  0.19289688     0.03910
C765        C  0.05543521  0.83616802  0.17246308    -0.10180
H766        H  0.03570171  0.89394853  0.22551082     0.09510
H767        H  0.02904270  0.79340050  0.23350520     0.07040
H768        H  0.06443237  0.83179081  0.14877562     0.06880
O769        O  0.49193331  0.95624676  0.99900698    -0.85700
O770        O  0.48929271  0.63465198  0.49953481    -0.85860
O771        O  0.45131418  0.54227663  0.04861361    -0.87530
O772        O  0.45265826  0.54484151  0.44643027    -0.86290
O773        O  0.49159878  0.54181246  0.40815192    -0.85880
O774        O  0.48988874  0.54165069  0.08930467    -0.87250
O775        O  0.45098298  0.59566909  0.49769003    -0.85730
O776        O  0.45287691  0.99520668  0.49768286    -0.85310
Zr777      Zr  0.47962075  0.54546205  0.49857180     2.84310
O778        O  0.01144832  0.57724921  0.46633292    -1.07290
O779        O  0.01183929  0.51367811  0.03266275    -1.08020
C780        C  0.46192406  0.96617676  0.99785944     1.07410
C781        C  0.45960279  0.62471399  0.49841153     1.07350
C782        C  0.46021192  0.54068201  0.07834933     1.10340
C783        C  0.46165427  0.54236041  0.41717617     1.08110
H784        H  0.99629277  0.59086338  0.04509127     0.33670
O785        O  0.01032833  0.57805253  0.03214571    -1.28240
H786        H  0.99948063  0.49942639  0.45445129     0.33350
O787        O  0.01268329  0.51280083  0.46797297    -1.29920
O788        O  0.09650353  0.63488184  0.50082383    -0.85690
O789        O  0.10003142  0.95736419  0.00166310    -0.87190
O790        O  0.04371587  0.59777342  0.09117144    -0.85770
O791        O  0.04395124  0.59554334  0.40838437    -0.85820
O792        O  0.04778551  0.99261766  0.41021242    -0.85530
O793        O  0.04724622  0.99603602  0.09350132    -0.85340
O794        O  0.13515836  0.55017364  0.05556524    -0.85710
O795        O  0.13721939  0.54923928  0.45165307    -0.85170
O796        O  0.09568192  0.54783123  0.09364130    -0.86230
O797        O  0.09844888  0.54574300  0.41208049    -0.85390
O798        O  0.04652704  0.63551021  0.05206025    -0.85790
O799        O  0.04741825  0.95693292  0.05590717    -0.85510
O800        O  0.04996701  0.95584581  0.45036162    -0.85160
O801        O  0.04362772  0.63436193  0.44661240    -0.85570
O802        O  0.13643326  0.59730454  0.49995435    -0.85870
O803        O  0.13827424  0.99650631  0.00256521    -0.87200
Zr804      Zr  0.04320036  0.60953627  0.49984573     2.83100
Zr805      Zr  0.04576366  0.98165241  0.00219181     2.83500
Zr806      Zr  0.04349111  0.54621961  0.06543295     2.84090
Zr807      Zr  0.04477084  0.54448586  0.43574238     2.83360
Zr808      Zr  0.10964167  0.54664791  0.50249601     2.84220
O809        O  0.07801833  0.51368193  0.46998739    -1.07780
O810        O  0.07600033  0.57815909  0.03363961    -1.07280
C811        C  0.12674972  0.62621346  0.49972556     1.07380
C812        C  0.12966946  0.96744554  0.00196259     1.10000
C813        C  0.04612504  0.62668000  0.08178453     1.07560
C814        C  0.04410413  0.62460217  0.41728597     1.07920
C815        C  0.04969459  0.96382841  0.42042677     1.07500
C816        C  0.04812815  0.96686522  0.08528716     1.07050
C817        C  0.12543217  0.55002453  0.08478503     1.07480
C818        C  0.12833024  0.54863497  0.42185469     1.06990
H819        H  0.09187119  0.50195731  0.04858422     0.33670
O820        O  0.07771387  0.51450103  0.03473344    -1.28870
H821        H  0.08957281  0.59052721  0.45544732     0.33690
O822        O  0.07624517  0.57739009  0.46864707    -1.30260
C823        C  0.05023983  0.89479383  0.16021372    -0.04550
C824        C  0.07474356  0.89572273  0.13657558    -0.01660
C825        C  0.07261210  0.91769436  0.11099811     0.03330
C826        C  0.05014602  0.94298337  0.11188153    -0.04550
C827        C  0.03031078  0.94571631  0.13903983    -0.01650
C828        C  0.02754090  0.92026304  0.16064597     0.03320
C829        C  0.10338213  0.87555385  0.13918447     0.37970
C830        C  0.01375523  0.97504995  0.14599847     0.37960
C831        C  0.99997116  0.92020663  0.18179096     0.36390
C832        C  0.09476089  0.91489498  0.08456624     0.36390
N833        N  0.97777980  0.92044749  0.19841564    -0.38430
N834        N  0.11224011  0.91212613  0.06339479    -0.38430
N835        N  0.00146174  0.49867292  0.15249399    -0.37880
N836        N  0.12633187  0.85960011  0.14112042    -0.37880
C837        C  0.05142832  0.69824051  0.15682331    -0.04550
C838        C  0.06870365  0.66922268  0.16026207    -0.01660
C839        C  0.06546604  0.64545335  0.13680646     0.03330
C840        C  0.04861663  0.65155414  0.10730586    -0.04550
C841        C  0.03395308  0.68157800  0.10281084    -0.01650
C842        C  0.03180266  0.70268353  0.12867784     0.03320
C843        C  0.09116388  0.66368871  0.18713048     0.37970
C844        C  0.02252863  0.69206659  0.07134846     0.37960
C845        C  0.00765942  0.72776267  0.12658114     0.36390
C846        C  0.08151273  0.61539005  0.14275270     0.36390
N847        N  0.98817907  0.74755923  0.12475783    -0.38430
N848        N  0.09423434  0.59157632  0.14840763    -0.38430
N849        N  0.01409842  0.70095450  0.04620720    -0.37880
N850        N  0.10909971  0.65892854  0.20844353    -0.37880
C851        C  0.04521368  0.89007853  0.34774170    -0.04550
C852        C  0.03206413  0.88559684  0.37861373    -0.01660
C853        C  0.03708197  0.90786412  0.40307596     0.03330
C854        C  0.05050788  0.93768354  0.39602342    -0.04550
C855        C  0.06389217  0.94217661  0.36521971    -0.01650
C856        C  0.06234707  0.91814960  0.34178055     0.03320
C857        C  0.01182236  0.85860015  0.38533881     0.37970
C858        C  0.08122342  0.97071269  0.35792761     0.37960
C859        C  0.07960037  0.92207615  0.31208466     0.36390
C860        C  0.02855722  0.89918856  0.43554348     0.36390
N861        N  0.09344769  0.92533705  0.28845756    -0.38430
N862        N  0.02209049  0.89184813  0.46137034    -0.38430
N863        N  0.09528815  0.49324864  0.35167560    -0.37880
N864        N  0.99565616  0.83720378  0.39088743    -0.37880
C865        C  0.04625976  0.64878677  0.39163681    -0.04550
C866        C  0.07697942  0.66035385  0.38299692    -0.01640
C867        C  0.07919613  0.68394349  0.35921589     0.03330
C868        C  0.05084271  0.69516328  0.34288402    -0.04550
C869        C  0.02023493  0.68294952  0.35091022    -0.01650
C870        C  0.01791353  0.66037922  0.37568622     0.03320
C871        C  0.10632104  0.64815755  0.39882780     0.37970
C872        C  0.49111613  0.69365604  0.33363730     0.37960
C873        C  0.48621422  0.64981265  0.38529928     0.36390
C874        C  0.11052141  0.69769298  0.35250610     0.36390
N875        N  0.46065245  0.64172064  0.39267282    -0.38430
N876        N  0.13541369  0.70893415  0.34728281    -0.38430
N877        N  0.46790620  0.70206502  0.31973536    -0.37880
N878        N  0.12971527  0.63837146  0.41141664    -0.37880
C879        C  0.38658362  0.53788721  0.15000945    -0.04550
C880        C  0.39291154  0.56585350  0.13265710    -0.01660
C881        C  0.41410330  0.56516401  0.10685080     0.03330
C882        C  0.43396641  0.53874585  0.10183286    -0.04550
C883        C  0.42757967  0.51052929  0.11825412    -0.01650
C884        C  0.40295632  0.50974379  0.14134159     0.03320
C885        C  0.37894641  0.59592771  0.14166613     0.37970
C886        C  0.44373392  0.98167334  0.10883177     0.37960
C887        C  0.39373061  0.97976375  0.15491479     0.36390
C888        C  0.41234505  0.59010363  0.08324784     0.36390
N889        N  0.38647855  0.95577520  0.16566823    -0.38430
N890        N  0.40878051  0.60896175  0.06346269    -0.38430
N891        N  0.45599999  0.95851070  0.10082742    -0.37880
N892        N  0.36796052  0.61999263  0.14868813    -0.37880
C893        C  0.20164587  0.56124871  0.15571987    -0.04550
C894        C  0.19500616  0.58503881  0.13276063    -0.01660
C895        C  0.16885308  0.58185324  0.11079273     0.03330
C896        C  0.15063501  0.55397727  0.11010302    -0.04550
C897        C  0.15652042  0.53048862  0.13357275    -0.01650
C898        C  0.18228389  0.53394066  0.15615384     0.03320
C899        C  0.21433572  0.61340582  0.13247685     0.37970
C900        C  0.13561588  0.50324134  0.13503743     0.37960
C901        C  0.18906122  0.50929018  0.17958567     0.36390
C902        C  0.15816207  0.60866668  0.09155718     0.36390
N903        N  0.19442239  0.98962824  0.19829632    -0.38430
N904        N  0.14892626  0.63037251  0.07710222    -0.38430
N905        N  0.11892323  0.98155124  0.13635049    -0.37880
N906        N  0.22991475  0.63590973  0.13213428    -0.37880
C907        C  0.15417077  0.55131603  0.39681716    -0.04550
C908        C  0.18813385  0.55072549  0.40501686    -0.01660
C909        C  0.21166741  0.55203028  0.38080365     0.03330
C910        C  0.20204121  0.54992456  0.34818105    -0.04550
C911        C  0.16836473  0.54996244  0.34007917    -0.01650
C912        C  0.14507088  0.55417845  0.36384586     0.03320
C913        C  0.19966449  0.54906367  0.43812782     0.37970
C914        C  0.15708369  0.54425987  0.30735849     0.37960
C915        C  0.11221716  0.56324135  0.35360008     0.36390
C916        C  0.24572867  0.55640759  0.38965011     0.36390
N917        N  0.08621290  0.57075981  0.34522059    -0.38430
N918        N  0.27284264  0.56000575  0.39676164    -0.38430
N919        N  0.14799836  0.53956498  0.28138226    -0.37880
N920        N  0.20916421  0.54762618  0.46442803    -0.37880
C921        C  0.38547019  0.53064706  0.34469733    -0.04550
C922        C  0.38424685  0.51444222  0.37427310    -0.01660
C923        C  0.40793144  0.51983776  0.39845532     0.03330
C924        C  0.43521664  0.53902917  0.39235260    -0.04550
C925        C  0.43666907  0.55493047  0.36256601    -0.01650
C926        C  0.41074816  0.55256015  0.33995741     0.03320
C927        C  0.35936777  0.49105054  0.37972478     0.37970
C928        C  0.46497214  0.57329649  0.35456197     0.37960
C929        C  0.40970678  0.57358221  0.31242107     0.36390
C930        C  0.40399484  0.50455942  0.42923743     0.36390
N931        N  0.40891185  0.59048869  0.29058995    -0.38430
N932        N  0.39922264  0.99244798  0.45352274    -0.38430
N933        N  0.98782059  0.58721644  0.34750305    -0.37880
N934        N  0.33959182  0.97244803  0.38425463    -0.37880
C935        C  0.15617302  0.94364251  0.00238998    -0.04550
C936        C  0.16126979  0.92438340  0.47557532    -0.01660
C937        C  0.18580247  0.90093506  0.47671434     0.03330
C938        C  0.20405007  0.89528954  0.00545119    -0.04550
C939        C  0.19938670  0.91529635  0.03196916    -0.01650
C940        C  0.17644084  0.94005515  0.02989394     0.03320
C941        C  0.14186163  0.92929388  0.44647473     0.37970
C942        C  0.21695666  0.90967816  0.06206375     0.37960
C943        C  0.17331761  0.96156745  0.05641982     0.36390
C944        C  0.19261665  0.88314177  0.44803410     0.36390
N945        N  0.17131275  0.97895168  0.07745633    -0.38430
N946        N  0.19802450  0.86894716  0.42515898    -0.38430
N947        N  0.23090257  0.90525350  0.08610021    -0.37880
N948        N  0.12656133  0.93316367  0.42314375    -0.37880
C949        C  0.15218113  0.65143378  0.49730015    -0.04550
C950        C  0.18460885  0.64629529  0.00827963    -0.01660
C951        C  0.20779336  0.67067803  0.00717055     0.03330
C952        C  0.19991837  0.69968956  0.49232742    -0.04550
C953        C  0.16798808  0.70416089  0.47941130    -0.01650
C954        C  0.14405612  0.68099026  0.48307482     0.03320
C955        C  0.19511189  0.61591948  0.02093234     0.37970
C956        C  0.15967008  0.73245374  0.46116556     0.37960
C957        C  0.11125251  0.68797687  0.47109876     0.36390
C958        C  0.23959582  0.66607208  0.02245238     0.36390
N959        N  0.08519858  0.69408138  0.46172173    -0.38430
N960        N  0.26488910  0.66226663  0.03474150    -0.38430
N961        N  0.15295349  0.75495293  0.44668403    -0.37880
N962        N  0.20383170  0.59171973  0.03078295    -0.37880
C963        C  0.43314598  0.64861240  0.49761179    -0.04550
C964        C  0.42890584  0.66900753  0.02370921    -0.01660
C965        C  0.40438232  0.69239548  0.02233453     0.03330
C966        C  0.38562762  0.69731084  0.49375214    -0.04550
C967        C  0.38919014  0.67595314  0.46810919    -0.01650
C968        C  0.41156005  0.65072581  0.47089836     0.03320
C969        C  0.44745414  0.66389743  0.05328537     0.37970
C970        C  0.37098279  0.68039817  0.43819739     0.37960
C971        C  0.41168057  0.62650979  0.44659632     0.36390
C972        C  0.39780169  0.71054309  0.05087309     0.36390
N973        N  0.41095209  0.60683939  0.42758328    -0.38430
N974        N  0.39266863  0.72497147  0.07366264    -0.38430
N975        N  0.35651969  0.68385445  0.41429238    -0.37880
N976        N  0.46085245  0.65895480  0.07750171    -0.37880
C977        C  0.43536564  0.94259817  0.99730418    -0.04550
C978        C  0.43270411  0.92032461  0.47254434    -0.01660
C979        C  0.40918086  0.89628629  0.47405365     0.03330
C980        C  0.38855502  0.89409897  0.00079788    -0.04550
C981        C  0.38934866  0.91848860  0.02378834    -0.01650
C982        C  0.41091097  0.94365754  0.02047942     0.03320
C983        C  0.45058720  0.92510923  0.44341718     0.37970
C984        C  0.36886412  0.91765443  0.05171981     0.37960
C985        C  0.40502386  0.97206041  0.03841884     0.36390
C986        C  0.40532088  0.87487465  0.44737179     0.36390
N987        N  0.39829435  0.49503973  0.05144474    -0.38430
N988        N  0.40233612  0.85784398  0.42601259    -0.38430
N989        N  0.35261327  0.91721179  0.07402167    -0.37880
N990        N  0.96367082  0.92973301  0.41960926    -0.37880
C991        C  0.36673310  0.86657476  0.50567962     0.03920
C992        C  0.37852355  0.83542188  0.00279846    -0.12230
C993        C  0.36002652  0.81065826  0.01454487     0.01420
C994        C  0.33419071  0.81832504  0.53446621    -0.10760
C995        C  0.31617072  0.84592109  0.52739786     0.03910
C996        C  0.33371880  0.87097429  0.51407293    -0.10180
H997        H  0.40128192  0.83028642  0.99128299     0.09510
H998        H  0.32345040  0.79928626  0.54765370     0.07040
H999        H  0.32223023  0.89364533  0.50999182     0.06880
C1000       C  0.36356378  0.72535221  0.99019984     0.03920
C1001       C  0.37530846  0.75520955  0.99910904    -0.12230
C1002       C  0.35532662  0.78153243  0.99555462     0.01420
C1003       C  0.32546282  0.77863417  0.97910898    -0.10760
C1004       C  0.31092710  0.74918552  0.97336652     0.03910
C1005       C  0.33073785  0.72236899  0.97913969    -0.10180
H1006       H  0.39940544  0.75789023  0.00975126     0.09510
H1007       H  0.31213232  0.80026142  0.97551625     0.07040
H1008       H  0.32084356  0.69918365  0.97553195     0.06880
C1009       C  0.22391123  0.72570729  0.98958721     0.03920
C1010       C  0.25558146  0.72124555  0.97711388    -0.12230
C1011       C  0.27413944  0.74774620  0.96854185     0.01420
C1012       C  0.25647206  0.77608893  0.96510870    -0.10760
C1013       C  0.23157053  0.78198897  0.98669827     0.03910
C1014       C  0.21474784  0.75634836  0.99875767    -0.10180
H1015       H  0.26552604  0.69786254  0.97445354     0.09510
H1016       H  0.26703917  0.79614532  0.95341600     0.07040
H1017       H  0.19434007  0.76013429  0.01433948     0.06880
C1018       C  0.22646263  0.86753302  0.50861096     0.03920
C1019       C  0.25931845  0.87100877  0.51917629    -0.12230
C1020       C  0.27942010  0.84441331  0.52499195     0.01420
C1021       C  0.26490495  0.81480231  0.52138099    -0.10760
C1022       C  0.23502689  0.81124437  0.00531334     0.03910
C1023       C  0.21495837  0.83740424  0.00037653    -0.10180
H1024       H  0.26895806  0.89435497  0.52246184     0.09510
H1025       H  0.27861150  0.79338882  0.52525738     0.07040
H1026       H  0.19102803  0.83438701  0.98945529     0.06880
C1027       C  0.36215059  0.52239279  0.81808140     0.03920
C1028       C  0.32816088  0.52093479  0.82300354    -0.12230
C1029       C  0.30697706  0.50961066  0.79873980     0.01420
C1030       C  0.32137104  0.49789232  0.77081584    -0.10760
C1031       C  0.35205407  0.50929765  0.76234895     0.03910
C1032       C  0.37374469  0.51719209  0.78702367    -0.10180
H1033       H  0.31829883  0.53024009  0.84488841     0.09510
H1034       H  0.30584202  0.48897279  0.75170172     0.07040
H1035       H  0.39878347  0.52195681  0.78125043     0.06880
C1036       C  0.22649065  0.54785845  0.82223057     0.03920
C1037       C  0.25327884  0.52648934  0.82408560    -0.12230
C1038       C  0.27219152  0.52100183  0.79693209     0.01420
C1039       C  0.26061793  0.53364610  0.76774858    -0.10760
C1040       C  0.23907379  0.55917553  0.76693371     0.03910
C1041       C  0.22217571  0.56666956  0.79441222    -0.10180
H1042       H  0.25925689  0.51396879  0.84609793     0.09510
H1043       H  0.27170337  0.52730244  0.74551556     0.07040
H1044       H  0.20469424  0.58589510  0.79370652     0.06880
C1045       C  0.22605521  0.56723602  0.68160693     0.03920
C1046       C  0.21575160  0.57030467  0.71332032    -0.12230
C1047       C  0.23822915  0.57840742  0.73734531     0.01420
C1048       C  0.26864834  0.58946755  0.72795916    -0.10760
C1049       C  0.28187734  0.57725826  0.69969004     0.03910
C1050       C  0.25961271  0.56856899  0.67517617    -0.10180
H1051       H  0.19125776  0.56377578  0.71963837     0.09510
H1052       H  0.28483443  0.59826080  0.74659992     0.07040
H1053       H  0.26806301  0.56081122  0.65212767     0.06880
C1054       C  0.36336468  0.53866552  0.67710192     0.03920
C1055       C  0.37147266  0.52389324  0.70671722    -0.12230
C1056       C  0.35184891  0.52907967  0.73297313     0.01420
C1057       C  0.32817049  0.55271529  0.73089485    -0.10760
C1058       C  0.31577286  0.56350937  0.70120108     0.03910
C1059       C  0.33343919  0.55552230  0.67394596    -0.10180
H1060       H  0.39279395  0.50895079  0.70961685     0.09510
H1061       H  0.31666867  0.55894651  0.75291235     0.07040
H1062       H  0.32485567  0.56351341  0.65055190     0.06880
C1063       C  0.05310279  0.72195036  0.81995917     0.03920
C1064       C  0.06563798  0.71776688  0.78878931    -0.12230
C1065       C  0.07187809  0.74416900  0.76925224     0.01420
C1066       C  0.06770007  0.77389747  0.78319410    -0.10760
C1067       C  0.04944074  0.77812043  0.81057697     0.03910
C1068       C  0.04281589  0.75208423  0.82972206    -0.10180
H1069       H  0.07036077  0.69430097  0.78007147     0.09510
H1070       H  0.07356342  0.79511845  0.77054593     0.07040
H1071       H  0.02985627  0.75510917  0.85183729     0.06880
C1072       C  0.04105855  0.86479996  0.82277351     0.03920
C1073       C  0.04639595  0.83301377  0.83171055    -0.12230
C1074       C  0.03288296  0.80911597  0.81300503     0.01420
C1075       C  0.01384265  0.81803926  0.78613493    -0.10760
C1076       C  0.02194045  0.84602270  0.77009595     0.03910
C1077       C  0.03168471  0.87110863  0.79019925    -0.10180
H1078       H  0.06048267  0.82703780  0.85319189     0.09510
H1079       H  0.00090231  0.79969401  0.77353603     0.07040
H1080       H  0.03219217  0.89471231  0.78066296     0.06880
C1081       C  0.05732693  0.72493387  0.68017580     0.03920
C1082       C  0.05890641  0.75657933  0.66921521    -0.12230
C1083       C  0.07011229  0.77998061  0.68987031     0.01420
C1084       C  0.08732925  0.77000092  0.71745632    -0.10760
C1085       C  0.07652048  0.74285826  0.73335525     0.03910
C1086       C  0.06193446  0.71960283  0.71377682    -0.10180
H1087       H  0.05174637  0.76354016  0.64516808     0.09510
H1088       H  0.10117319  0.78753673  0.73032376     0.07040
H1089       H  0.05380513  0.69789336  0.72440686     0.06880
C1090       C  0.04754802  0.86698296  0.68300129     0.03920
C1091       C  0.03741344  0.87073434  0.71537138    -0.12230
C1092       C  0.02940910  0.84445234  0.73448332     0.01420
C1093       C  0.03447471  0.81465647  0.72079881    -0.10760
C1094       C  0.05202721  0.81049607  0.69290246     0.03910
C1095       C  0.05544452  0.83616984  0.67246462    -0.10180
H1096       H  0.03569254  0.89395171  0.72550468     0.09510
H1097       H  0.02905279  0.79340350  0.73350780     0.07040
H1098       H  0.06444369  0.83179069  0.64877841     0.06880
O1099       O  0.49193695  0.95625388  0.49900721    -0.85700
O1100       O  0.48928816  0.63464927  0.99953151    -0.85860
O1101       O  0.45131218  0.54227991  0.54861606    -0.87530
O1102       O  0.45265893  0.54483860  0.94642990    -0.86290
O1103       O  0.49159856  0.54181004  0.90815069    -0.85880
O1104       O  0.48988659  0.54165163  0.58930714    -0.87250
O1105       O  0.45098113  0.59566404  0.99768683    -0.85730
O1106       O  0.45287087  0.99519722  0.99768355    -0.85310
Zr1107     Zr  0.47962129  0.54545827  0.99857019     2.84310
O1108       O  0.01132505  0.57721835  0.96630741    -1.07290
O1109       O  0.01189898  0.51370517  0.53266559    -1.08020
C1110       C  0.46192902  0.96618652  0.49785922     1.07410
C1111       C  0.45959898  0.62470948  0.99840746     1.07350
C1112       C  0.46020954  0.54068411  0.57835211     1.10340
C1113       C  0.46165435  0.54235741  0.91717585     1.08110
H1114       H  0.99642580  0.59091362  0.54507012     0.33670
O1115       O  0.01045216  0.57809048  0.53212625    -1.28240
H1116       H  0.99943481  0.49939631  0.95445168     0.33350
O1117       O  0.01262908  0.51277516  0.96797590    -1.29920
O1118       O  0.09613847  0.63511494  0.00084860    -0.85690
O1119       O  0.10005334  0.95735918  0.50166317    -0.87190
O1120       O  0.04378120  0.59780511  0.59114156    -0.85770
O1121       O  0.04391260  0.59551947  0.90837009    -0.85820
O1122       O  0.04775880  0.99261152  0.91020887    -0.85530
O1123       O  0.04727458  0.99605001  0.59350000    -0.85340
O1124       O  0.13520756  0.55016858  0.55558915    -0.85710
O1125       O  0.13717441  0.54926568  0.95169259    -0.85170
O1126       O  0.09572842  0.54782236  0.59366244    -0.86230
O1127       O  0.09841046  0.54574558  0.91211520    -0.85390
O1128       O  0.04668382  0.63554943  0.55204393    -0.85790
O1129       O  0.04744260  0.95694796  0.55590508    -0.85510
O1130       O  0.04994812  0.95584075  0.95035947    -0.85160
O1131       O  0.04350370  0.63433109  0.94660269    -0.85570
O1132       O  0.13602774  0.59749850  0.99996602    -0.85870
O1133       O  0.13832061  0.99647822  0.50256654    -0.87200
Zr1134     Zr  0.04302047  0.60952070  0.99984712     2.83100
Zr1135     Zr  0.04579864  0.98166493  0.50219009     2.83500
Zr1136     Zr  0.04356781  0.54623679  0.56542552     2.84090
Zr1137     Zr  0.04470436  0.54447147  0.93574181     2.83360
Zr1138     Zr  0.10953505  0.54667983  0.00250197     2.84220
O1139       O  0.07795188  0.51368545  0.96999425    -1.07780
O1140       O  0.07613453  0.57815001  0.53364765    -1.07280
C1141       C  0.12636618  0.62641672  0.99973979     1.07380
C1142       C  0.12969525  0.96742739  0.50196537     1.10000
C1143       C  0.04622447  0.62671216  0.58176407     1.07560
C1144       C  0.04403795  0.62457696  0.91727592     1.07920
C1145       C  0.04967714  0.96382296  0.92042425     1.07500
C1146       C  0.04814917  0.96687877  0.58528534     1.07050
C1147       C  0.12547632  0.55001960  0.58480777     1.07480
C1148       C  0.12829221  0.54864585  0.92189207     1.06990
H1149       H  0.09193433  0.50194434  0.54858848     0.33670
O1150       O  0.07778856  0.51449655  0.53473327    -1.28870
H1151       H  0.08943866  0.59054253  0.95546862     0.33690
O1152       O  0.07611588  0.57739820  0.96866419    -1.30260
C1153       C  0.05023941  0.89479637  0.66020628    -0.04550
C1154       C  0.07474411  0.89572543  0.63656892    -0.01660
C1155       C  0.07261682  0.91769909  0.61099280     0.03330
C1156       C  0.05015617  0.94299254  0.61187729    -0.04550
C1157       C  0.03031532  0.94572257  0.63903195    -0.01650
C1158       C  0.02754139  0.92026703  0.66063645     0.03320
C1159       C  0.10338278  0.87555728  0.63917932     0.37970
C1160       C  0.01375935  0.97505603  0.64598962     0.37960
C1161       C  0.99997118  0.92021118  0.68178064     0.36390
C1162       C  0.09476451  0.91489582  0.58456034     0.36390
N1163       N  0.97778042  0.92045125  0.69840610    -0.38430
N1164       N  0.11224198  0.91212307  0.56338802    -0.38430
N1165       N  0.00147092  0.49868024  0.65248130    -0.37880
N1166       N  0.12633308  0.85960451  0.64111675    -0.37880
C1167       C  0.05145325  0.69824570  0.65682809    -0.04550
C1168       C  0.06872652  0.66922715  0.66027178    -0.01660
C1169       C  0.06550622  0.64546457  0.63680809     0.03330
C1170       C  0.04868518  0.65157606  0.60729549    -0.04550
C1171       C  0.03401497  0.68159638  0.60280092    -0.01650
C1172       C  0.03184219  0.70269299  0.62867339     0.03320
C1173       C  0.09117205  0.66368687  0.68715043     0.37970
C1174       C  0.02260378  0.69208798  0.57133533     0.37960
C1175       C  0.00769477  0.72776834  0.62657105     0.36390
C1176       C  0.08154242  0.61539692  0.64275911     0.36390
N1177       N  0.98821214  0.74756262  0.62474385    -0.38430
N1178       N  0.09425381  0.59157886  0.64841686    -0.38430
N1179       N  0.01418275  0.70097772  0.54619199    -0.37880
N1180       N  0.10909808  0.65892051  0.70846995    -0.37880
C1181       C  0.04521186  0.89007312  0.84774011    -0.04550
C1182       C  0.03206152  0.88559024  0.87861157    -0.01660
C1183       C  0.03707863  0.90785654  0.90307420     0.03330
C1184       C  0.05050110  0.93767733  0.89602213    -0.04550
C1185       C  0.06388844  0.94217103  0.86521972    -0.01650
C1186       C  0.06234625  0.91814395  0.84178031     0.03320
C1187       C  0.01181720  0.85859497  0.88533565     0.37970
C1188       C  0.08121857  0.97070797  0.85792906     0.37960
C1189       C  0.07960085  0.92207101  0.81208497     0.36390
C1190       C  0.02855432  0.89917940  0.93554134     0.36390
N1191       N  0.09344835  0.92533194  0.78845791    -0.38430
N1192       N  0.02208797  0.89183801  0.96136798    -0.38430
N1193       N  0.09529634  0.49323569  0.85168993    -0.37880
N1194       N  0.99564864  0.83720038  0.89088466    -0.37880
C1195       C  0.04621229  0.64876855  0.89163380    -0.04550
C1196       C  0.07693695  0.66033224  0.88300169    -0.01640
C1197       C  0.07916248  0.68392649  0.85922442     0.03330
C1198       C  0.05081374  0.69515615  0.84289075    -0.04550
C1199       C  0.02020187  0.68294969  0.85091429    -0.01650
C1200       C  0.01787176  0.66037560  0.87568558     0.03320
C1201       C  0.10627345  0.64813643  0.89884245     0.37970
C1202       C  0.49111428  0.69365511  0.83363480     0.37960
C1203       C  0.48621192  0.64981098  0.88529637     0.36390
C1204       C  0.11049134  0.69767141  0.85251937     0.36390
N1205       N  0.46065031  0.64171832  0.89266982    -0.38430
N1206       N  0.13538460  0.70891102  0.84729665    -0.38430
N1207       N  0.46790456  0.70206382  0.81973234    -0.37880
N1208       N  0.12966641  0.63835596  0.91143846    -0.37880
C1209       C  0.38658616  0.53789069  0.65002122    -0.04550
C1210       C  0.39291382  0.56585666  0.63266728    -0.01660
C1211       C  0.41410224  0.56516635  0.60685764     0.03330
C1212       C  0.43396396  0.53874783  0.60183697    -0.04550
C1213       C  0.42757770  0.51053162  0.61825920    -0.01650
C1214       C  0.40295669  0.50974676  0.64134984     0.03320
C1215       C  0.37895242  0.59593184  0.64167789     0.37970
C1216       C  0.44373580  0.98167589  0.60882907     0.37960
C1217       C  0.39373240  0.97976465  0.65491188     0.36390
C1218       C  0.41234225  0.59010596  0.58325458     0.36390
N1219       N  0.38648025  0.95577538  0.66566357    -0.38430
N1220       N  0.40877653  0.60896399  0.56346944    -0.38430
N1221       N  0.45600148  0.95851359  0.60082315    -0.37880
N1222       N  0.36796939  0.61999767  0.64870087    -0.37880
C1223       C  0.20166362  0.56125830  0.65575201    -0.04550
C1224       C  0.19503128  0.58504473  0.63278686    -0.01660
C1225       C  0.16888772  0.58185326  0.61081126     0.03330
C1226       C  0.15066939  0.55397817  0.61012790    -0.04550
C1227       C  0.15654586  0.53049393  0.63360360    -0.01650
C1228       C  0.18230418  0.53394889  0.65618743     0.03320
C1229       C  0.21436388  0.61340966  0.63249753     0.37970
C1230       C  0.13564378  0.50324407  0.63506445     0.37960
C1231       C  0.18908195  0.50929783  0.67961899     0.36390
C1232       C  0.15821923  0.60865291  0.59154242     0.36390
N1233       N  0.19443788  0.98962645  0.69830869    -0.38430
N1234       N  0.14900300  0.63034476  0.57705364    -0.38430
N1235       N  0.11893533  0.98155645  0.63636783    -0.37880
N1236       N  0.22994473  0.63591218  0.63214736    -0.37880
C1237       C  0.15413971  0.55131617  0.89685338    -0.04550
C1238       C  0.18810364  0.55072017  0.90505233    -0.01660
C1239       C  0.21164080  0.55202251  0.88083868     0.03330
C1240       C  0.20201903  0.54992103  0.84821385    -0.04550
C1241       C  0.16834203  0.54996191  0.84011294    -0.01650
C1242       C  0.14504486  0.55417544  0.86388006     0.03320
C1243       C  0.19963191  0.54905324  0.93816323     0.37970
C1244       C  0.15706389  0.54426699  0.80739037     0.37960
C1245       C  0.11219158  0.56323533  0.85363170     0.36390
C1246       C  0.24570215  0.55639699  0.88968570     0.36390
N1247       N  0.08618799  0.57075182  0.84524839    -0.38430
N1248       N  0.27281745  0.55999390  0.89679280    -0.38430
N1249       N  0.14798254  0.53957830  0.78141169    -0.37880
N1250       N  0.20913387  0.54761073  0.96446237    -0.37880
C1251       C  0.38546596  0.53064270  0.84470403    -0.04550
C1252       C  0.38424437  0.51443874  0.87427997    -0.01660
C1253       C  0.40793085  0.51983438  0.89845976     0.03330
C1254       C  0.43521590  0.53902511  0.89235401    -0.04550
C1255       C  0.43666646  0.55492571  0.86256693    -0.01650
C1256       C  0.41074398  0.55255478  0.83996042     0.03320
C1257       C  0.35936465  0.49104815  0.87973420     0.37970
C1258       C  0.46496863  0.57329214  0.85456084     0.37960
C1259       C  0.40970105  0.57357478  0.81242236     0.36390
C1260       C  0.40399535  0.50455746  0.92924271     0.36390
N1261       N  0.40890498  0.59047989  0.79059014    -0.38430
N1262       N  0.39922112  0.99244052  0.95352025    -0.38430
N1263       N  0.98778120  0.58721908  0.84751608    -0.37880
N1264       N  0.33958970  0.97244305  0.88425195    -0.37880
C1265       C  0.15618458  0.94362437  0.50240022    -0.04550
C1266       C  0.16125435  0.92439365  0.97556711    -0.01660
C1267       C  0.18577720  0.90093130  0.97670804     0.03330
C1268       C  0.20407992  0.89530449  0.50545806    -0.04550
C1269       C  0.19940521  0.91530225  0.53198009    -0.01650
C1270       C  0.17645098  0.94004923  0.52990517     0.03320
C1271       C  0.14185099  0.92930744  0.94646536     0.37970
C1272       C  0.21696642  0.90968291  0.56207919     0.37960
C1273       C  0.17331873  0.96156304  0.55643010     0.36390
C1274       C  0.19259530  0.88314010  0.94802743     0.36390
N1275       N  0.17130534  0.97894993  0.57746360    -0.38430
N1276       N  0.19801298  0.86894889  0.92515246    -0.38430
N1277       N  0.23090346  0.90525694  0.58612017    -0.37880
N1278       N  0.12655567  0.93317728  0.92313143    -0.37880
C1279       C  0.15183671  0.65158581  0.99730196    -0.04550
C1280       C  0.18496265  0.64624768  0.50831381    -0.01660
C1281       C  0.20806923  0.67070817  0.50721228     0.03330
C1282       C  0.19973272  0.69968724  0.99230134    -0.04550
C1283       C  0.16781325  0.70424486  0.97937282    -0.01650
C1284       C  0.14380010  0.68114831  0.98304707     0.03320
C1285       C  0.19554361  0.61592780  0.52104264     0.37970
C1286       C  0.15959868  0.73254674  0.96110054     0.37960
C1287       C  0.11103072  0.68818910  0.97100120     0.36390
C1288       C  0.23988339  0.66622268  0.52251573     0.36390
N1289       N  0.08501731  0.69434460  0.96154204    -0.38430
N1290       N  0.26519182  0.66253588  0.53481194    -0.38430
N1291       N  0.15297688  0.75505869  0.94660014    -0.37880
N1292       N  0.20436656  0.59179368  0.53097833    -0.37880
C1293       C  0.43314039  0.64860583  0.99760563    -0.04550
C1294       C  0.42891265  0.66901177  0.52371706    -0.01660
C1295       C  0.40439561  0.69240629  0.52234190     0.03330
C1296       C  0.38560501  0.69728721  0.99374899    -0.04550
C1297       C  0.38917298  0.67593266  0.96810597    -0.01650
C1298       C  0.41155216  0.65071321  0.97089298     0.03320
C1299       C  0.44745819  0.66389517  0.55329375     0.37970
C1300       C  0.37095779  0.68037317  0.93819800     0.37960
C1301       C  0.41167690  0.62649752  0.94659102     0.36390
C1302       C  0.39781442  0.71054859  0.55088369     0.36390
N1303       N  0.41095037  0.60682791  0.92757717    -0.38430
N1304       N  0.39268270  0.72497388  0.57367558    -0.38430
N1305       N  0.35648894  0.68382712  0.91429597    -0.37880
N1306       N  0.46085544  0.65894783  0.57750968    -0.37880
C1307       C  0.43537031  0.94261204  0.49730448    -0.04550
C1308       C  0.43269985  0.92031150  0.97254315    -0.01660
C1309       C  0.40917678  0.89627082  0.97405003     0.03330
C1310       C  0.38856253  0.89411945  0.50080330    -0.04550
C1311       C  0.38935461  0.91850920  0.52379177    -0.01650
C1312       C  0.41091621  0.94367595  0.52048007     0.03320
C1313       C  0.45058288  0.92510030  0.94341641     0.37970
C1314       C  0.36886936  0.91767636  0.55172340     0.37960
C1315       C  0.40502826  0.97207996  0.53841681     0.36390
C1316       C  0.40531895  0.87486401  0.94736449     0.36390
N1317       N  0.39829310  0.49504583  0.55144749    -0.38430
N1318       N  0.40233648  0.85783735  0.92600173    -0.38430
N1319       N  0.35261652  0.91723268  0.57402386    -0.37880
N1320       N  0.96366367  0.92972600  0.91960499    -0.37880
C1321       C  0.86671223  0.36654715  0.00567503     0.03920
C1322       C  0.87855768  0.33544937  0.50283607    -0.12230
C1323       C  0.86006803  0.31068464  0.51458405     0.01420
C1324       C  0.83417085  0.31830497  0.03446970    -0.10760
C1325       C  0.81615277  0.34590177  0.02739872     0.03910
C1326       C  0.83369991  0.37095023  0.01406714    -0.10180
H1327       H  0.90132198  0.33031872  0.49132906     0.09510
H1328       H  0.82342747  0.29926662  0.04765543     0.07040
H1329       H  0.82221325  0.39362151  0.00998175     0.06880
C1330       C  0.86360545  0.22539053  0.49019908     0.03920
C1331       C  0.87534957  0.25523910  0.49913980    -0.12230
C1332       C  0.85537930  0.28157057  0.49557820     0.01420
C1333       C  0.82553660  0.27869669  0.47909202    -0.10760
C1334       C  0.81099863  0.24925842  0.47331943     0.03910
C1335       C  0.83079142  0.22243012  0.47910130    -0.10180
H1336       H  0.89943682  0.25790825  0.50980696     0.09510
H1337       H  0.81221542  0.30032941  0.47549569     0.07040
H1338       H  0.82089177  0.19925042  0.47547458     0.06880
C1339       C  0.72402834  0.22575540  0.48955644     0.03920
C1340       C  0.75567811  0.22132174  0.47704449    -0.12230
C1341       C  0.77421679  0.24782988  0.46847855     0.01420
C1342       C  0.75654188  0.27617214  0.46507178    -0.10760
C1343       C  0.73162769  0.28204323  0.48665821     0.03910
C1344       C  0.71482833  0.25638811  0.49871513    -0.10180
H1345       H  0.76562872  0.19794375  0.47436665     0.09510
H1346       H  0.76710836  0.29624368  0.45340455     0.07040
H1347       H  0.69442557  0.26015465  0.51430803     0.06880
C1348       C  0.72645329  0.36752842  0.00860353     0.03920
C1349       C  0.75930746  0.37099813  0.01917498    -0.12230
C1350       C  0.77940369  0.34439908  0.02499100     0.01420
C1351       C  0.76488599  0.31479079  0.02137411    -0.10760
C1352       C  0.73506741  0.31127894  0.50529978     0.03910
C1353       C  0.71499501  0.33743354  0.50037349    -0.10180
H1354       H  0.76895001  0.39434258  0.02246520     0.09510
H1355       H  0.77858987  0.29337543  0.02524976     0.07040
H1356       H  0.69106652  0.33441482  0.48944858     0.06880
C1357       C  0.86216022  0.02239335  0.31807690     0.03920
C1358       C  0.82817015  0.02093121  0.32299536    -0.12230
C1359       C  0.80699060  0.00960500  0.29872823     0.01420
C1360       C  0.82138804  0.99788728  0.27080767    -0.10760
C1361       C  0.85206765  0.00930017  0.26234453     0.03910
C1362       C  0.87375669  0.01719533  0.28702003    -0.10180
H1363       H  0.81830464  0.03023570  0.34487899     0.09510
H1364       H  0.80586152  0.98896724  0.25169174     0.07040
H1365       H  0.89879507  0.02196299  0.28124781     0.06880
C1366       C  0.72651375  0.04785699  0.32220837     0.03920
C1367       C  0.75329497  0.02648277  0.32406430    -0.12230
C1368       C  0.77220667  0.02099505  0.29691286     0.01420
C1369       C  0.76063419  0.03364082  0.26772852    -0.10760
C1370       C  0.73909058  0.05917190  0.26691572     0.03910
C1371       C  0.72219979  0.06666998  0.29439431    -0.10180
H1372       H  0.75926953  0.01396032  0.34607648     0.09510
H1373       H  0.77171828  0.02729605  0.24549519     0.07040
H1374       H  0.70472087  0.08589790  0.29369082     0.06880
C1375       C  0.72606061  0.06723442  0.18159739     0.03920
C1376       C  0.71575870  0.07030378  0.21331051    -0.12230
C1377       C  0.73823822  0.07840726  0.23733280     0.01420
C1378       C  0.76865341  0.08947285  0.22794639    -0.10760
C1379       C  0.78188209  0.07725969  0.19968091     0.03910
C1380       C  0.75961801  0.06856797  0.17516649    -0.10180
H1381       H  0.69126577  0.06377385  0.21963072     0.09510
H1382       H  0.78483938  0.09826761  0.24658658     0.07040
H1383       H  0.76806810  0.06080838  0.15211863     0.06880
C1384       C  0.86336024  0.03866087  0.17710274     0.03920
C1385       C  0.87147596  0.02389628  0.20671782    -0.12230
C1386       C  0.85185709  0.02908612  0.23297368     0.01420
C1387       C  0.82817496  0.05271940  0.23089439    -0.10760
C1388       C  0.81577478  0.06350867  0.20119847     0.03910
C1389       C  0.83343633  0.05551579  0.17394479    -0.10180
H1390       H  0.89279887  0.00895573  0.20961681     0.09510
H1391       H  0.81667427  0.05895268  0.25291189     0.07040
H1392       H  0.82485190  0.06350290  0.15054956     0.06880
C1393       C  0.55312134  0.22195847  0.31995393     0.03920
C1394       C  0.56565266  0.21777570  0.28878307    -0.12230
C1395       C  0.57188715  0.24417794  0.26924541     0.01420
C1396       C  0.56770789  0.27390649  0.28318761    -0.10760
C1397       C  0.54945316  0.27812793  0.31057423     0.03910
C1398       C  0.54283349  0.25209086  0.32971942    -0.10180
H1399       H  0.57037739  0.19431014  0.28006516     0.09510
H1400       H  0.57356708  0.29512786  0.27053815     0.07040
H1401       H  0.52987725  0.25511397  0.35183690     0.06880
C1402       C  0.54105700  0.36480632  0.32277650     0.03920
C1403       C  0.54639859  0.33302040  0.33171327    -0.12230
C1404       C  0.53289090  0.30912111  0.31300556     0.01420
C1405       C  0.51384786  0.31804267  0.28613707    -0.10760
C1406       C  0.52194263  0.34602640  0.27009771     0.03910
C1407       C  0.53168396  0.37111362  0.29020130    -0.10180
H1408       H  0.56048565  0.32704579  0.35319477     0.09510
H1409       H  0.50090862  0.29969619  0.27353910     0.07040
H1410       H  0.53218938  0.39471725  0.28066467     0.06880
C1411       C  0.55732635  0.22493795  0.18017167     0.03920
C1412       C  0.55890153  0.25658368  0.16921067    -0.12230
C1413       C  0.57010816  0.27998609  0.18986431     0.01420
C1414       C  0.58733025  0.27000824  0.21744757    -0.10760
C1415       C  0.57652546  0.24286558  0.23334832     0.03910
C1416       C  0.56193872  0.21960826  0.21377243    -0.10180
H1417       H  0.55173814  0.26354404  0.14516435     0.09510
H1418       H  0.60117411  0.28754535  0.23031327     0.07040
H1419       H  0.55381186  0.19789880  0.22440438     0.06880
C1420       C  0.54754475  0.36698740  0.18300130     0.03920
C1421       C  0.53741215  0.37073836  0.21537210    -0.12230
C1422       C  0.52940882  0.34445614  0.23448413     0.01420
C1423       C  0.53447243  0.31466029  0.22079789    -0.10760
C1424       C  0.55202172  0.31050037  0.19289918     0.03910
C1425       C  0.55543864  0.33617467  0.17246255    -0.10180
H1426       H  0.53569232  0.39395561  0.22550590     0.09510
H1427       H  0.52905172  0.29340687  0.23350660     0.07040
H1428       H  0.56443641  0.33179642  0.14877559     0.06880
O1429       O  0.99189906  0.45622409  0.99900683    -0.85700
O1430       O  0.98929705  0.13465174  0.49953378    -0.85860
O1431       O  0.95126959  0.04224732  0.04861771    -0.87530
O1432       O  0.95266295  0.04484183  0.44642990    -0.86290
O1433       O  0.99160306  0.04181133  0.40815126    -0.85880
O1434       O  0.98984497  0.04163181  0.08931037    -0.87250
O1435       O  0.95098730  0.09566901  0.49768861    -0.85730
O1436       O  0.95287698  0.49520669  0.49768342    -0.85310
Zr1437     Zr  0.97962551  0.04546163  0.49857044     2.84310
O1438       O  0.51144913  0.07724882  0.46633250    -1.07290
O1439       O  0.51189534  0.01370251  0.03266600    -1.08020
C1440       C  0.96188868  0.46614838  0.99785324     1.07410
C1441       C  0.95960700  0.12471401  0.49841025     1.07350
C1442       C  0.96017070  0.04066045  0.07835259     1.10340
C1443       C  0.96165872  0.04235993  0.41717597     1.08110
H1444       H  0.49641862  0.09090947  0.04506858     0.33670
O1445       O  0.51044530  0.07808647  0.03212493    -1.28240
H1446       H  0.49948191  0.99942616  0.45445156     0.33350
O1447       O  0.51268433  0.01280072  0.46797329    -1.29920
O1448       O  0.59650381  0.13488201  0.50082316    -0.85690
O1449       O  0.60005265  0.45736174  0.00166217    -0.87190
O1450       O  0.54377627  0.09780512  0.09114099    -0.85770
O1451       O  0.54395242  0.09554286  0.40838429    -0.85820
O1452       O  0.54778180  0.49261920  0.41021367    -0.85530
O1453       O  0.54727268  0.49605245  0.09349953    -0.85340
O1454       O  0.63520298  0.05017061  0.05558904    -0.85710
O1455       O  0.63722022  0.04923842  0.45165425    -0.85170
O1456       O  0.59572423  0.04782400  0.09366254    -0.86230
O1457       O  0.59845050  0.04574194  0.41208099    -0.85390
O1458       O  0.54667628  0.13554862  0.05204242    -0.85790
O1459       O  0.54744175  0.45694978  0.05590529    -0.85510
O1460       O  0.54996414  0.45584742  0.45036292    -0.85160
O1461       O  0.54362743  0.13436170  0.44661201    -0.85570
O1462       O  0.63643356  0.09730467  0.49995426    -0.85870
O1463       O  0.63831903  0.49648168  0.00256431    -0.87200
Zr1464     Zr  0.54320064  0.10953637  0.49984533     2.83100
Zr1465     Zr  0.54579667  0.48166535  0.00218984     2.83500
Zr1466     Zr  0.54356317  0.04623619  0.06542548     2.84090
Zr1467     Zr  0.54477229  0.04448544  0.43574268     2.83360
Zr1468     Zr  0.60964204  0.04664797  0.50249658     2.84220
O1469       O  0.57801906  0.01368154  0.46998833    -1.07780
O1470       O  0.57612884  0.07814973  0.03364766    -1.07280
C1471       C  0.62675001  0.12621360  0.49972507     1.07380
C1472       C  0.62969439  0.46743052  0.00196334     1.10000
C1473       C  0.54621850  0.12671211  0.08176288     1.07560
C1474       C  0.54410436  0.12460179  0.41728569     1.07920
C1475       C  0.54969147  0.46383002  0.42042809     1.07500
C1476       C  0.54814789  0.46688120  0.08528532     1.07050
C1477       C  0.62547209  0.05002194  0.08480769     1.07480
C1478       C  0.62833168  0.04863370  0.42185580     1.06990
H1479       H  0.59193032  0.00194432  0.04858979     0.33670
O1480       O  0.57778411  0.01449557  0.03473414    -1.28870
H1481       H  0.58957365  0.09052700  0.45544748     0.33690
O1482       O  0.57624595  0.07739002  0.46864728    -1.30260
C1483       C  0.55023730  0.39480078  0.16020709    -0.04550
C1484       C  0.57474235  0.39572914  0.13657008    -0.01660
C1485       C  0.57261546  0.41770227  0.11099363     0.03330
C1486       C  0.55015485  0.44299573  0.11187765    -0.04550
C1487       C  0.53031400  0.44572660  0.13903228    -0.01650
C1488       C  0.52753971  0.42027154  0.16063710     0.03320
C1489       C  0.60338072  0.37556062  0.13918116     0.37970
C1490       C  0.51375850  0.47506037  0.14598962     0.37960
C1491       C  0.49996968  0.42021614  0.18178152     0.36390
C1492       C  0.59476356  0.41489865  0.08456151     0.36390
N1493       N  0.47777903  0.42045644  0.19840712    -0.38430
N1494       N  0.61224136  0.41212581  0.06338945    -0.38430
N1495       N  0.50147307  0.99868595  0.15248506    -0.37880
N1496       N  0.62633078  0.35960757  0.14111920    -0.37880
C1497       C  0.55145141  0.19824855  0.15682503    -0.04550
C1498       C  0.56872479  0.16922989  0.16026856    -0.01660
C1499       C  0.56550282  0.14546635  0.13680585     0.03330
C1500       C  0.54868026  0.15157682  0.10729381    -0.04550
C1501       C  0.53401009  0.18159714  0.10279917    -0.01650
C1502       C  0.53183853  0.20269451  0.12867124     0.03320
C1503       C  0.59117214  0.16369030  0.18714585     0.37970
C1504       C  0.52259805  0.19208820  0.07133370     0.37960
C1505       C  0.50769013  0.22776897  0.12656949     0.36390
C1506       C  0.58153899  0.11539875  0.14275715     0.36390
N1507       N  0.48820671  0.24756257  0.12474272    -0.38430
N1508       N  0.59425044  0.09158079  0.14841522    -0.38430
N1509       N  0.51417652  0.20097766  0.04619041    -0.37880
N1510       N  0.60909970  0.15892429  0.20846424    -0.37880
C1511       C  0.54520932  0.39008081  0.34774277    -0.04550
C1512       C  0.53206038  0.38559888  0.37861513    -0.01660
C1513       C  0.53707926  0.40786573  0.40307754     0.03330
C1514       C  0.55050494  0.43768518  0.39602485    -0.04550
C1515       C  0.56388888  0.44217838  0.36522106    -0.01650
C1516       C  0.56234339  0.41815153  0.34178184     0.03320
C1517       C  0.51181819  0.35860255  0.38534057     0.37970
C1518       C  0.58122012  0.47071445  0.35792887     0.37960
C1519       C  0.57959704  0.42207786  0.31208613     0.36390
C1520       C  0.52855570  0.39918980  0.43554533     0.36390
N1521       N  0.59344450  0.42533845  0.28845907    -0.38430
N1522       N  0.52208995  0.39184922  0.46137241    -0.38430
N1523       N  0.59529145  0.99324701  0.35167807    -0.37880
N1524       N  0.49565173  0.33720650  0.39088972    -0.37880
C1525       C  0.54625951  0.14878651  0.39163656    -0.04550
C1526       C  0.57697896  0.16035397  0.38299661    -0.01640
C1527       C  0.57919522  0.18394468  0.35921657     0.03330
C1528       C  0.55084152  0.19516536  0.34288566    -0.04550
C1529       C  0.52023393  0.18295092  0.35091180    -0.01650
C1530       C  0.51791301  0.16037954  0.37568692     0.03320
C1531       C  0.60632081  0.14815717  0.39882670     0.37970
C1532       C  0.99111969  0.19365577  0.33363798     0.37960
C1533       C  0.98621789  0.14981184  0.38529953     0.36390
C1534       C  0.61052039  0.19769449  0.35250711     0.36390
N1535       N  0.96065613  0.14172000  0.39267331    -0.38430
N1536       N  0.63541263  0.20893589  0.34728414    -0.38430
N1537       N  0.96790976  0.20206535  0.31973640    -0.37880
N1538       N  0.62971515  0.13837065  0.41141501    -0.37880
C1539       C  0.88657406  0.03788251  0.15002330    -0.04550
C1540       C  0.89289988  0.06584830  0.13266895    -0.01660
C1541       C  0.91407993  0.06515281  0.10685616     0.03330
C1542       C  0.93393282  0.03872993  0.10183504    -0.04550
C1543       C  0.92755568  0.01051722  0.11826284    -0.01650
C1544       C  0.90294004  0.00973567  0.14135484     0.03320
C1545       C  0.87894607  0.09592695  0.14168088     0.37970
C1546       C  0.94370715  0.48164507  0.10885019     0.37960
C1547       C  0.89371274  0.47973904  0.15494177     0.36390
C1548       C  0.91232430  0.09009286  0.08325395     0.36390
N1549       N  0.88647100  0.45574998  0.16570100    -0.38430
N1550       N  0.90876240  0.10895101  0.06346886    -0.38430
N1551       N  0.95598412  0.45848685  0.10084869    -0.37880
N1552       N  0.86796986  0.11999619  0.14870226    -0.37880
C1553       C  0.70166719  0.06125705  0.15574429    -0.04550
C1554       C  0.69503255  0.08504456  0.13278101    -0.01660
C1555       C  0.66888579  0.08185484  0.11080884     0.03330
C1556       C  0.65066597  0.05398060  0.11012717    -0.04550
C1557       C  0.65654406  0.03049584  0.13360196    -0.01650
C1558       C  0.68230578  0.03394896  0.15618235     0.03320
C1559       C  0.71436613  0.11340888  0.13249052     0.37970
C1560       C  0.63564075  0.00324701  0.13506496     0.37960
C1561       C  0.68908483  0.00929747  0.17961318     0.36390
C1562       C  0.65821636  0.10865526  0.09154169     0.36390
N1563       N  0.69442780  0.48962220  0.19830807    -0.38430
N1564       N  0.64899973  0.13034781  0.07705426    -0.38430
N1565       N  0.61893034  0.48155477  0.13636164    -0.37880
N1566       N  0.72994793  0.13591078  0.13213982    -0.37880
C1567       C  0.65417300  0.05131397  0.39681923    -0.04550
C1568       C  0.68813579  0.05072236  0.40502044    -0.01660
C1569       C  0.71167032  0.05202644  0.38080853     0.03330
C1570       C  0.70204529  0.04992119  0.34818604    -0.04550
C1571       C  0.66836932  0.04996091  0.34008197    -0.01650
C1572       C  0.64507438  0.05417678  0.36384760     0.03320
C1573       C  0.69966542  0.04905965  0.43813159     0.37970
C1574       C  0.65709018  0.04426106  0.30736006     0.37960
C1575       C  0.61222100  0.06323962  0.35360062     0.36390
C1576       C  0.74573165  0.05640242  0.38965585     0.36390
N1577       N  0.58621695  0.07075794  0.34522029    -0.38430
N1578       N  0.77284577  0.05999954  0.39676741    -0.38430
N1579       N  0.64800610  0.03956827  0.28138300    -0.37880
N1580       N  0.70916472  0.04762139  0.46443188    -0.37880
C1581       C  0.88547302  0.03064485  0.34470129    -0.04550
C1582       C  0.88425057  0.01444068  0.37427705    -0.01660
C1583       C  0.90793569  0.01983699  0.39845803     0.03330
C1584       C  0.93522071  0.03902814  0.39235354    -0.04550
C1585       C  0.93667220  0.05492895  0.36256666    -0.01650
C1586       C  0.91075059  0.05255786  0.33995919     0.03320
C1587       C  0.85937169  0.99104892  0.37972976     0.37970
C1588       C  0.96497464  0.07329543  0.35456155     0.37960
C1589       C  0.90970825  0.07357852  0.31242163     0.36390
C1590       C  0.90399904  0.00456026  0.42924085     0.36390
N1591       N  0.90891266  0.09048404  0.29058973    -0.38430
N1592       N  0.89921963  0.49245176  0.45353036    -0.38430
N1593       N  0.48782656  0.08721736  0.34750357    -0.37880
N1594       N  0.83958488  0.47245141  0.38426694    -0.37880
C1595       C  0.65618398  0.44362740  0.00239622    -0.04550
C1596       C  0.66126676  0.42438437  0.47557583    -0.01660
C1597       C  0.68579974  0.40093613  0.47671423     0.03330
C1598       C  0.70407493  0.39530318  0.00545157    -0.04550
C1599       C  0.69940185  0.41529994  0.03197481    -0.01650
C1600       C  0.67644996  0.44004909  0.02990108     0.03320
C1601       C  0.64185823  0.42929497  0.44647551     0.37970
C1602       C  0.71696182  0.40967721  0.06207403     0.37960
C1603       C  0.67331932  0.46156153  0.05642733     0.36390
C1604       C  0.69261367  0.38314332  0.44803363     0.36390
N1605       N  0.67130736  0.47894716  0.07746207    -0.38430
N1606       N  0.69802137  0.36894911  0.42515822    -0.38430
N1607       N  0.73089819  0.40524839  0.08611487    -0.37880
N1608       N  0.62655770  0.43316485  0.42314470    -0.37880
C1609       C  0.65218145  0.15143392  0.49729946    -0.04550
C1610       C  0.68495261  0.14624736  0.00831049    -0.01660
C1611       C  0.70805831  0.17070806  0.00720666     0.03330
C1612       C  0.69991864  0.19968981  0.49232685    -0.04550
C1613       C  0.66798844  0.20416094  0.47941036    -0.01650
C1614       C  0.64405649  0.18099028  0.48307386     0.03320
C1615       C  0.69553484  0.11592815  0.02104018     0.37970
C1616       C  0.65967051  0.23245358  0.46116425     0.37960
C1617       C  0.61125296  0.18797671  0.47109746     0.36390
C1618       C  0.73987312  0.16622437  0.02250953     0.36390
N1619       N  0.58519909  0.19408108  0.46172016    -0.38430
N1620       N  0.76518176  0.16253847  0.03480563    -0.38430
N1621       N  0.65295395  0.25495261  0.44668243    -0.37880
N1622       N  0.70435861  0.09179445  0.03097632    -0.37880
C1623       C  0.93315003  0.14861284  0.49761059    -0.04550
C1624       C  0.92883908  0.16898328  0.02372115    -0.01660
C1625       C  0.90434179  0.19239228  0.02233966     0.03330
C1626       C  0.88563024  0.19731086  0.49375191    -0.04550
C1627       C  0.88919241  0.17595277  0.46810916    -0.01650
C1628       C  0.91156296  0.15072572  0.47089791     0.03320
C1629       C  0.94741209  0.16388745  0.05328622     0.37970
C1630       C  0.87098387  0.18039702  0.43819795     0.37960
C1631       C  0.91168311  0.12650951  0.44659606     0.36390
C1632       C  0.89777492  0.21054449  0.05087865     0.36390
N1633       N  0.91095441  0.10683901  0.42758314    -0.38430
N1634       N  0.89265724  0.22497343  0.07367143    -0.38430
N1635       N  0.85651984  0.18385264  0.41429338    -0.37880
N1636       N  0.96083612  0.15895603  0.07749144    -0.37880
C1637       C  0.93534001  0.44257295  0.99730054    -0.04550
C1638       C  0.93270406  0.42032439  0.47254426    -0.01660
C1639       C  0.90918081  0.39628607  0.47405364     0.03330
C1640       C  0.88853841  0.39408725  0.00079811    -0.04550
C1641       C  0.88933196  0.41847170  0.02379128    -0.01650
C1642       C  0.91088992  0.44363736  0.02047902     0.03320
C1643       C  0.95058738  0.42510872  0.44341720     0.37970
C1644       C  0.86885583  0.41763336  0.05172981     0.37960
C1645       C  0.90500454  0.47203873  0.03842151     0.36390
C1646       C  0.90532121  0.37487402  0.44737207     0.36390
N1647       N  0.89827976  0.99501333  0.05145330    -0.38430
N1648       N  0.90233674  0.35784301  0.42601311    -0.38430
N1649       N  0.85261221  0.41718782  0.07403682    -0.37880
N1650       N  0.46366895  0.42973328  0.41960999    -0.37880
C1651       C  0.86673265  0.36657501  0.50567948     0.03920
C1652       C  0.87854104  0.33542435  0.00284085    -0.12230
C1653       C  0.86005024  0.31066315  0.01458884     0.01420
C1654       C  0.83418963  0.31832573  0.53446608    -0.10760
C1655       C  0.81616977  0.34592180  0.52739703     0.03910
C1656       C  0.83371815  0.37097471  0.51407201    -0.10180
H1657       H  0.90130683  0.33029298  0.99133652     0.09510
H1658       H  0.82344900  0.29928716  0.54765363     0.07040
H1659       H  0.82222959  0.39364569  0.50999032     0.06880
C1660       C  0.86357191  0.22538351  0.99018832     0.03920
C1661       C  0.87532376  0.25522711  0.99912985    -0.12230
C1662       C  0.85535683  0.28155921  0.99557354     0.01420
C1663       C  0.82551509  0.27869354  0.97908363    -0.10760
C1664       C  0.81097471  0.24925779  0.97330453     0.03910
C1665       C  0.83076089  0.22242790  0.97908764    -0.10180
H1666       H  0.89941156  0.25789121  0.00979763     0.09510
H1667       H  0.81219621  0.30032815  0.97549052     0.07040
H1668       H  0.82085877  0.19924944  0.97545983     0.06880
C1669       C  0.72401303  0.22575346  0.98954619     0.03920
C1670       C  0.75565903  0.22132050  0.97702839    -0.12230
C1671       C  0.77419546  0.24782926  0.96846078     0.01420
C1672       C  0.75652151  0.27617150  0.96505646    -0.10760
C1673       C  0.73160918  0.28204089  0.98664515     0.03910
C1674       C  0.71481291  0.25638553  0.99870490    -0.10180
H1675       H  0.76560829  0.19794221  0.97434876     0.09510
H1676       H  0.76708972  0.29624368  0.95339170     0.07040
H1677       H  0.69441215  0.26015151  0.01430040     0.06880
C1678       C  0.72646129  0.36753392  0.50860970     0.03920
C1679       C  0.75931721  0.37100973  0.51917513    -0.12230
C1680       C  0.77941908  0.34441426  0.52499066     0.01420
C1681       C  0.76490414  0.31480327  0.52137938    -0.10760
C1682       C  0.73505143  0.31127322  0.00528952     0.03910
C1683       C  0.71498389  0.33743079  0.00036240    -0.10180
H1684       H  0.76895674  0.39435593  0.52246100     0.09510
H1685       H  0.77861072  0.29338984  0.52525608     0.07040
H1686       H  0.69105651  0.33441613  0.98943379     0.06880
C1687       C  0.86214915  0.02238811  0.81806564     0.03920
C1688       C  0.82816045  0.02092657  0.82298382    -0.12230
C1689       C  0.80698229  0.00959932  0.79871819     0.01420
C1690       C  0.82137998  0.99788316  0.77079607    -0.10760
C1691       C  0.85206233  0.00929258  0.76233401     0.03910
C1692       C  0.87374924  0.01718733  0.78701100    -0.10180
H1693       H  0.81829492  0.03023216  0.84486709     0.09510
H1694       H  0.80585319  0.98896506  0.75167948     0.07040
H1695       H  0.89878855  0.02195418  0.78124145     0.06880
C1696       C  0.72651134  0.04785648  0.82220756     0.03920
C1697       C  0.75329021  0.02647928  0.82406058    -0.12230
C1698       C  0.77219926  0.02099031  0.79690688     0.01420
C1699       C  0.76062855  0.03364042  0.76772478    -0.10760
C1700       C  0.73908987  0.05917475  0.76691506     0.03910
C1701       C  0.72219891  0.06667184  0.79439450    -0.10180
H1702       H  0.75926486  0.01395569  0.84607213     0.09510
H1703       H  0.77171224  0.02729676  0.74549083     0.07040
H1704       H  0.70472144  0.08590097  0.79369248     0.06880
C1705       C  0.72606362  0.06723541  0.68159744     0.03920
C1706       C  0.71576149  0.07030775  0.71331006    -0.12230
C1707       C  0.73824106  0.07841057  0.73733227     0.01420
C1708       C  0.76865863  0.08947176  0.72794556    -0.10760
C1709       C  0.78188635  0.07725928  0.69967827     0.03910
C1710       C  0.75962097  0.06856767  0.67516546    -0.10180
H1711       H  0.69126794  0.06377966  0.71963022     0.09510
H1712       H  0.78484554  0.09826486  0.74658583     0.07040
H1713       H  0.76807045  0.06080760  0.65211753     0.06880
C1714       C  0.86337061  0.03866479  0.67709345     0.03920
C1715       C  0.87148010  0.02389369  0.70670798    -0.12230
C1716       C  0.85185700  0.02907952  0.73296317     0.01420
C1717       C  0.82817796  0.05271499  0.73088605    -0.10760
C1718       C  0.81578044  0.06350906  0.70119179     0.03910
C1719       C  0.83344560  0.05552106  0.67393708    -0.10180
H1720       H  0.89280175  0.00895163  0.70960742     0.09510
H1721       H  0.81667565  0.05894543  0.75290364     0.07040
H1722       H  0.82486204  0.06351182  0.65054291     0.06880
C1723       C  0.55312191  0.22195724  0.81995503     0.03920
C1724       C  0.56565402  0.21777468  0.78878444    -0.12230
C1725       C  0.57188901  0.24417707  0.76924708     0.01420
C1726       C  0.56770956  0.27390552  0.78318939    -0.10760
C1727       C  0.54945415  0.27812680  0.81057556     0.03910
C1728       C  0.54283392  0.25208962  0.82972043    -0.10180
H1729       H  0.57037877  0.19430916  0.78006643     0.09510
H1730       H  0.57356894  0.29512696  0.77054012     0.07040
H1731       H  0.52987701  0.25511263  0.85183753     0.06880
C1732       C  0.54105774  0.36480517  0.82277681     0.03920
C1733       C  0.54639932  0.33301937  0.83171394    -0.12230
C1734       C  0.53289167  0.30911989  0.81300650     0.01420
C1735       C  0.51384873  0.31804113  0.78613781    -0.10760
C1736       C  0.52194317  0.34602495  0.77009839     0.03910
C1737       C  0.53168437  0.37111228  0.79020177    -0.10180
H1738       H  0.56048639  0.32704500  0.85319550     0.09510
H1739       H  0.50090984  0.29969445  0.77353978     0.07040
H1740       H  0.53218961  0.39471588  0.78066506     0.06880
C1741       C  0.55732916  0.22493756  0.68017320     0.03920
C1742       C  0.55890472  0.25658319  0.66921213    -0.12230
C1743       C  0.57011100  0.27998557  0.68986587     0.01420
C1744       C  0.58733263  0.27000773  0.71744946    -0.10760
C1745       C  0.57652767  0.24286500  0.73335003     0.03910
C1746       C  0.56194104  0.21960780  0.71377396    -0.10180
H1747       H  0.55174173  0.26354349  0.64516568     0.09510
H1748       H  0.60117625  0.28754487  0.73031537     0.07040
H1749       H  0.55381392  0.19789837  0.72440575     0.06880
C1750       C  0.54754533  0.36698641  0.68300227     0.03920
C1751       C  0.53741244  0.37073716  0.71537296    -0.12230
C1752       C  0.52940964  0.34445479  0.73448496     0.01420
C1753       C  0.53447424  0.31465906  0.72079897    -0.10760
C1754       C  0.55202402  0.31049954  0.69290053     0.03910
C1755       C  0.55544029  0.33617384  0.67246374    -0.10180
H1756       H  0.53569196  0.39395439  0.72550669     0.09510
H1757       H  0.52905393  0.29340556  0.73350774     0.07040
H1758       H  0.56443830  0.33179570  0.64877685     0.06880
O1759       O  0.99193674  0.45625370  0.49900627    -0.85700
O1760       O  0.98916726  0.13462094  0.99954617    -0.85860
O1761       O  0.95131745  0.04227925  0.54861371    -0.87530
O1762       O  0.95262292  0.04482901  0.94642134    -0.86290
O1763       O  0.99156673  0.04179643  0.90814538    -0.85880
O1764       O  0.98989177  0.04165029  0.58930496    -0.87250
O1765       O  0.95088331  0.09561951  0.99769821    -0.85730
O1766       O  0.95282248  0.49516259  0.99767118    -0.85310
Zr1767     Zr  0.97956361  0.04543101  0.99857047     2.84310
O1768       O  0.51144254  0.07724428  0.96633266    -1.07290
O1769       O  0.51189927  0.01370596  0.53266575    -1.08020
C1770       C  0.96192886  0.46618648  0.49785900     1.07410
C1771       C  0.95948902  0.12466853  0.99842516     1.07350
C1772       C  0.96021499  0.04068312  0.57834947     1.10340
C1773       C  0.96162351  0.04234938  0.91716885     1.08110
H1774       H  0.49642596  0.09091372  0.54506913     0.33670
O1775       O  0.51045238  0.07809053  0.53212544    -1.28240
H1776       H  0.49947844  0.99942164  0.95445145     0.33350
O1777       O  0.51268034  0.01279669  0.96797316    -1.29920
O1778       O  0.59649447  0.13488022  0.00082385    -0.85690
O1779       O  0.60005003  0.45736009  0.50166446    -0.87190
O1780       O  0.54378130  0.09780646  0.59114116    -0.85770
O1781       O  0.54394856  0.09554056  0.90838423    -0.85820
O1782       O  0.54778251  0.49261853  0.91021201    -0.85530
O1783       O  0.54727071  0.49605201  0.59350120    -0.85340
O1784       O  0.63520806  0.05016935  0.55558915    -0.85710
O1785       O  0.63721577  0.04923786  0.95165479    -0.85170
O1786       O  0.59572889  0.04782396  0.59366245    -0.86230
O1787       O  0.59844660  0.04574040  0.91208115    -0.85390
O1788       O  0.54668382  0.13555040  0.55204315    -0.85790
O1789       O  0.54743933  0.45694969  0.55590656    -0.85510
O1790       O  0.54996651  0.45584706  0.95036155    -0.85160
O1791       O  0.54362095  0.13435924  0.94661196    -0.85570
O1792       O  0.63642528  0.09730412  0.99995347    -0.85870
O1793       O  0.63831696  0.49647934  0.50256777    -0.87200
Zr1794     Zr  0.54319294  0.10953328  0.99984509     2.83100
Zr1795     Zr  0.54579511  0.48166611  0.50219142     2.83500
Zr1796     Zr  0.54356805  0.04623788  0.56542558     2.84090
Zr1797     Zr  0.54476789  0.04448298  0.93574283     2.83360
Zr1798     Zr  0.60963630  0.04664739  0.00249680     2.84220
O1799       O  0.57801478  0.01367957  0.96998877    -1.07780
O1800       O  0.57613493  0.07815066  0.53364762    -1.07280
C1801       C  0.62674063  0.12621248  0.99972482     1.07380
C1802       C  0.62969198  0.46742835  0.50196655     1.10000
C1803       C  0.54622451  0.12671343  0.58176340     1.07560
C1804       C  0.54409966  0.12459951  0.91728563     1.07920
C1805       C  0.54969304  0.46382952  0.92042672     1.07500
C1806       C  0.54814578  0.46688081  0.58528670     1.07050
C1807       C  0.62547680  0.05002097  0.58480768     1.07480
C1808       C  0.62832776  0.04863255  0.92185617     1.06990
H1809       H  0.59193440  0.00194504  0.54858945     0.33670
O1810       O  0.57778874  0.01449707  0.53473399    -1.28870
H1811       H  0.58956747  0.09052586  0.95544745     0.33690
O1812       O  0.57623999  0.07738862  0.96864720    -1.30260
C1813       C  0.55023702  0.39479987  0.66020802    -0.04550
C1814       C  0.57474195  0.39572892  0.63657093    -0.01660
C1815       C  0.57261438  0.41770211  0.61099457     0.03330
C1816       C  0.55015323  0.44299511  0.61187881    -0.04550
C1817       C  0.53031244  0.44572539  0.63903351    -0.01650
C1818       C  0.52753879  0.42027013  0.66063818     0.03320
C1819       C  0.60338087  0.37556109  0.63918183     0.37970
C1820       C  0.51375653  0.47505885  0.64599118     0.37960
C1821       C  0.49996874  0.42021400  0.68178258     0.36390
C1822       C  0.59476221  0.41489888  0.58456222     0.36390
N1823       N  0.47777809  0.42045374  0.69840818    -0.38430
N1824       N  0.61223979  0.41212616  0.56338999    -0.38430
N1825       N  0.50147390  0.99868675  0.65248394    -0.37880
N1826       N  0.62633137  0.35960862  0.64111969    -0.37880
C1827       C  0.55145458  0.19824831  0.65682650    -0.04550
C1828       C  0.56872815  0.16922978  0.66027009    -0.01660
C1829       C  0.56550711  0.14546667  0.63680692     0.03330
C1830       C  0.54868533  0.15157760  0.60729462    -0.04550
C1831       C  0.53401455  0.18159763  0.60280015    -0.01650
C1832       C  0.53184212  0.20269448  0.62867248     0.03320
C1833       C  0.59117475  0.16368988  0.68714791     0.37970
C1834       C  0.52260243  0.19208874  0.57133470     0.37960
C1835       C  0.50769337  0.22776865  0.62657075     0.36390
C1836       C  0.58154338  0.11539905  0.64275803     0.36390
N1837       N  0.48820969  0.24756201  0.62474396    -0.38430
N1838       N  0.59425480  0.09158102  0.64841582    -0.38430
N1839       N  0.51418076  0.20097817  0.54619143    -0.37880
N1840       N  0.60910171  0.15892360  0.70846672    -0.37880
C1841       C  0.54521027  0.39007987  0.84774263    -0.04550
C1842       C  0.53206109  0.38559843  0.87861491    -0.01660
C1843       C  0.53708016  0.40786546  0.90307699     0.03330
C1844       C  0.55050633  0.43768459  0.89602391    -0.04550
C1845       C  0.56389032  0.44217743  0.86522013    -0.01650
C1846       C  0.56234465  0.41815033  0.84178127     0.03320
C1847       C  0.51181841  0.35860249  0.88534051     0.37970
C1848       C  0.58122164  0.47071341  0.85792763     0.37960
C1849       C  0.57959828  0.42207617  0.81208549     0.36390
C1850       C  0.52855624  0.39919008  0.93554484     0.36390
N1851       N  0.59344570  0.42533638  0.78845836    -0.38430
N1852       N  0.52209028  0.39184992  0.96137199    -0.38430
N1853       N  0.59529218  0.99324566  0.85168009    -0.37880
N1854       N  0.49565153  0.33720676  0.89088977    -0.37880
C1855       C  0.54625620  0.14878446  0.89163668    -0.04550
C1856       C  0.57697621  0.16035149  0.88299779    -0.01640
C1857       C  0.57919376  0.18394252  0.85921818     0.03330
C1858       C  0.55084083  0.19516385  0.84288639    -0.04550
C1859       C  0.52023272  0.18294981  0.85091137    -0.01650
C1860       C  0.51791047  0.16037830  0.87568627     0.03320
C1861       C  0.60631736  0.14815403  0.89882865     0.37970
C1862       C  0.99110865  0.19365158  0.83363481     0.37960
C1863       C  0.98619913  0.14980597  0.88529258     0.36390
C1864       C  0.61051941  0.19769205  0.85251013     0.36390
N1865       N  0.96063836  0.14171394  0.89266932    -0.38430
N1866       N  0.63541203  0.20893324  0.84728832    -0.38430
N1867       N  0.96789904  0.20206039  0.81973240    -0.37880
N1868       N  0.62971120  0.13836706  0.91141748    -0.37880
C1869       C  0.88659113  0.03788993  0.65001406    -0.04550
C1870       C  0.89291976  0.06585644  0.63266200    -0.01660
C1871       C  0.91410880  0.06516622  0.60685356     0.03330
C1872       C  0.93396970  0.03874710  0.60183327    -0.04550
C1873       C  0.92758249  0.01053048  0.61825417    -0.01650
C1874       C  0.90296068  0.00974560  0.64134324     0.03320
C1875       C  0.87895841  0.09593165  0.64167319     0.37970
C1876       C  0.94373271  0.48167508  0.60882660     0.37960
C1877       C  0.89372491  0.47976367  0.65490437     0.36390
C1878       C  0.91235026  0.09010657  0.58325138     0.36390
N1879       N  0.88647020  0.45577447  0.66565448    -0.38430
N1880       N  0.90878539  0.10896550  0.56346706    -0.38430
N1881       N  0.95599778  0.45851236  0.60082109    -0.37880
N1882       N  0.86797503  0.11999717  0.64869677    -0.37880
C1883       C  0.70166981  0.06125771  0.65574520    -0.04550
C1884       C  0.69503506  0.08504505  0.63278194    -0.01660
C1885       C  0.66888916  0.08185454  0.61080914     0.03330
C1886       C  0.65067018  0.05397982  0.61012724    -0.04550
C1887       C  0.65654787  0.03049541  0.63360247    -0.01650
C1888       C  0.68230878  0.03394935  0.65618355     0.03320
C1889       C  0.71436778  0.11340995  0.63249204     0.37970
C1890       C  0.63564496  0.00324624  0.63506513     0.37960
C1891       C  0.68908736  0.00929849  0.67961521     0.36390
C1892       C  0.65821987  0.10865449  0.59154126     0.36390
N1893       N  0.69443792  0.48963120  0.69830761    -0.38430
N1894       N  0.64900340  0.13034670  0.57705321    -0.38430
N1895       N  0.61893374  0.48155770  0.63636891    -0.37880
N1896       N  0.72994899  0.13591224  0.63214197    -0.37880
C1897       C  0.65416972  0.05131247  0.89681967    -0.04550
C1898       C  0.68813254  0.05071967  0.90502098    -0.01660
C1899       C  0.71166755  0.05202364  0.88080907     0.03330
C1900       C  0.70204289  0.04992020  0.84818616    -0.04550
C1901       C  0.66836691  0.04996081  0.84008225    -0.01650
C1902       C  0.64507166  0.05417610  0.86384795     0.03320
C1903       C  0.69966156  0.04905576  0.93813231     0.37970
C1904       C  0.65708810  0.04426221  0.80736010     0.37960
C1905       C  0.61221840  0.06323926  0.85360096     0.36390
C1906       C  0.74572891  0.05639804  0.88965690     0.36390
N1907       N  0.58621445  0.07075784  0.84522057    -0.38430
N1908       N  0.77284290  0.05999438  0.89676944    -0.38430
N1909       N  0.64800436  0.03957017  0.78138279    -0.37880
N1910       N  0.70916009  0.04761656  0.96443283    -0.37880
C1911       C  0.88545624  0.03063998  0.84469057    -0.04550
C1912       C  0.88422885  0.01443423  0.87426512    -0.01660
C1913       C  0.90790902  0.01983029  0.89844790     0.03330
C1914       C  0.93519205  0.03902265  0.89234587    -0.04550
C1915       C  0.93665029  0.05492485  0.86256072    -0.01650
C1916       C  0.91073282  0.05255429  0.83995076     0.03320
C1917       C  0.85935205  0.99103997  0.87971570     0.37970
C1918       C  0.96495614  0.07328881  0.85455903     0.37960
C1919       C  0.90969527  0.07357465  0.81241281     0.36390
C1920       C  0.90397268  0.00454917  0.92922903     0.36390
N1921       N  0.90890543  0.09048068  0.79058128    -0.38430
N1922       N  0.89919625  0.49239334  0.95349506    -0.38430
N1923       N  0.48782294  0.08721567  0.84750424    -0.37880
N1924       N  0.83956793  0.47240882  0.88422601    -0.37880
C1925       C  0.65618171  0.44362524  0.50240090    -0.04550
C1926       C  0.66126844  0.42438796  0.97556997    -0.01660
C1927       C  0.68579918  0.40093772  0.97670765     0.03330
C1928       C  0.70407792  0.39530538  0.50545753    -0.04550
C1929       C  0.69940341  0.41530307  0.53197973    -0.01650
C1930       C  0.67644882  0.44004997  0.52990541     0.03320
C1931       C  0.64186105  0.42930145  0.94646948     0.37970
C1932       C  0.71696533  0.40968381  0.56207843     0.37960
C1933       C  0.67331700  0.46156366  0.55643050     0.36390
C1934       C  0.69261274  0.38314622  0.94802602     0.36390
N1935       N  0.67130391  0.47895046  0.57746412    -0.38430
N1936       N  0.69802006  0.36895282  0.92514997    -0.38430
N1937       N  0.73090292  0.40525793  0.58611913    -0.37880
N1938       N  0.62656146  0.43317346  0.92313844    -0.37880
C1939       C  0.65217071  0.15143277  0.99729780    -0.04550
C1940       C  0.68496290  0.14624793  0.50831334    -0.01660
C1941       C  0.70806939  0.17070851  0.50721199     0.03330
C1942       C  0.69990565  0.19968785  0.99231961    -0.04550
C1943       C  0.66797549  0.20415796  0.97940372    -0.01650
C1944       C  0.64404421  0.18098801  0.98307073     0.03320
C1945       C  0.69554393  0.11592806  0.52104213     0.37970
C1946       C  0.65965710  0.23244893  0.96115490     0.37960
C1947       C  0.61123991  0.18797419  0.97109649     0.36390
C1948       C  0.73988333  0.16622317  0.52251596     0.36390
N1949       N  0.58518554  0.19407886  0.96172086    -0.38430
N1950       N  0.76519157  0.16253644  0.53481258    -0.38430
N1951       N  0.65294083  0.25494683  0.94667114    -0.37880
N1952       N  0.70436695  0.09179394  0.53097775    -0.37880
C1953       C  0.93304085  0.14856365  0.99762815    -0.04550
C1954       C  0.92891747  0.16901300  0.52371543    -0.01660
C1955       C  0.90439963  0.19240693  0.52234096     0.03330
C1956       C  0.88558105  0.19729998  0.99374612    -0.04550
C1957       C  0.88913407  0.17593989  0.96810327    -0.01650
C1958       C  0.91147852  0.15069588  0.97090182     0.03320
C1959       C  0.94746463  0.16389775  0.55329138     0.37970
C1960       C  0.87094477  0.18039757  0.93818303     0.37960
C1961       C  0.91161975  0.12649527  0.94658381     0.36390
C1962       C  0.89781883  0.21054899  0.55088299     0.36390
N1963       N  0.91091875  0.10683566  0.92755867    -0.38430
N1964       N  0.89268736  0.22497405  0.57367508    -0.38430
N1965       N  0.85649595  0.18385896  0.91427068    -0.37880
N1966       N  0.96086305  0.15895147  0.57750691    -0.37880
C1967       C  0.93536997  0.44261215  0.49730413    -0.04550
C1968       C  0.93267578  0.42028980  0.97253800    -0.01660
C1969       C  0.90915387  0.39625314  0.97404652     0.03330
C1970       C  0.88856213  0.39411962  0.50080304    -0.04550
C1971       C  0.88935382  0.41850974  0.52379110    -0.01650
C1972       C  0.91091540  0.44367648  0.52047926     0.03320
C1973       C  0.95056328  0.42507516  0.94341319     0.37970
C1974       C  0.86886818  0.41767731  0.55172246     0.37960
C1975       C  0.90502680  0.47208094  0.53841507     0.36390
C1976       C  0.90529752  0.37483967  0.94736575     0.36390
N1977       N  0.89829491  0.99504709  0.55144495    -0.38430
N1978       N  0.90231891  0.35780824  0.92600647    -0.38430
N1979       N  0.85261504  0.41723395  0.57402271    -0.37880
N1980       N  0.46366731  0.42973106  0.91961101    -0.37880
C1981       C  0.86672048  0.86655464  0.00566049     0.03920
C1982       C  0.87855725  0.83544819  0.50283525    -0.12230
C1983       C  0.86006770  0.81068335  0.51458322     0.01420
C1984       C  0.83418125  0.81830542  0.03444640    -0.10760
C1985       C  0.81616326  0.84590477  0.02738646     0.03910
C1986       C  0.83370953  0.87095618  0.01405901    -0.10180
H1987       H  0.90132129  0.83031764  0.49132771     0.09510
H1988       H  0.82344108  0.79926472  0.04763108     0.07040
H1989       H  0.82222318  0.89362884  0.00998185     0.06880
C1990       C  0.86360429  0.72538940  0.49019917     0.03920
C1991       C  0.87534868  0.75523794  0.49913924    -0.12230
C1992       C  0.85537857  0.78156940  0.49557738     0.01420
C1993       C  0.82553549  0.77869534  0.47909179    -0.10760
C1994       C  0.81099739  0.74925695  0.47331971     0.03910
C1995       C  0.83079024  0.72242876  0.47910167    -0.10180
H1996       H  0.89943600  0.75790705  0.50980630     0.09510
H1997       H  0.81221428  0.80032804  0.47549553     0.07040
H1998       H  0.82089065  0.69924899  0.47547521     0.06880
C1999       C  0.72402686  0.72575369  0.48955697     0.03920
C2000       C  0.75567674  0.72131999  0.47704509    -0.12230
C2001       C  0.77421550  0.74782819  0.46847914     0.01420
C2002       C  0.75654060  0.77617039  0.46507245    -0.10760
C2003       C  0.73162684  0.78204150  0.48665927     0.03910
C2004       C  0.71482720  0.75638642  0.49871599    -0.10180
H2005       H  0.76562734  0.69794199  0.47436725     0.09510
H2006       H  0.76710697  0.79624192  0.45340510     0.07040
H2007       H  0.69442452  0.76015303  0.51430897     0.06880
C2008       C  0.72646107  0.86753749  0.00861101     0.03920
C2009       C  0.75931736  0.87100516  0.01917657    -0.12230
C2010       C  0.77941323  0.84440456  0.02498755     0.01420
C2011       C  0.76489223  0.81479719  0.02137341    -0.10760
C2012       C  0.73506709  0.81127712  0.50530089     0.03910
C2013       C  0.71499499  0.83743186  0.50037441    -0.10180
H2014       H  0.76896199  0.89434908  0.02246425     0.09510
H2015       H  0.77859543  0.79338064  0.02524354     0.07040
H2016       H  0.69106643  0.83441335  0.48944956     0.06880
C2017       C  0.86215380  0.52238966  0.31808410     0.03920
C2018       C  0.82816373  0.52092866  0.32300261    -0.12230
C2019       C  0.80698403  0.50960112  0.29873627     0.01420
C2020       C  0.82138124  0.49788088  0.27081671    -0.10760
C2021       C  0.85206135  0.50929208  0.26235298     0.03910
C2022       C  0.87375042  0.51718839  0.28702794    -0.10180
H2023       H  0.81829836  0.53023525  0.34488539     0.09510
H2024       H  0.80585442  0.48896025  0.25170130     0.07040
H2025       H  0.89878898  0.52195508  0.28125553     0.06880
C2026       C  0.72650906  0.54785757  0.32221352     0.03920
C2027       C  0.75328911  0.52648220  0.32407079    -0.12230
C2028       C  0.77220060  0.52099223  0.29691980     0.01420
C2029       C  0.76062879  0.53363698  0.26773472    -0.10760
C2030       C  0.73908606  0.55916884  0.26692058     0.03910
C2031       C  0.72219602  0.56666937  0.29439874    -0.10180
H2032       H  0.75926295  0.51396072  0.34608373     0.09510
H2033       H  0.77171295  0.52729076  0.24550183     0.07040
H2034       H  0.70471808  0.58589812  0.29369432     0.06880
C2035       C  0.72605710  0.56723064  0.18160203     0.03920
C2036       C  0.71575489  0.57030056  0.21331496    -0.12230
C2037       C  0.73823473  0.57840334  0.23733731     0.01420
C2038       C  0.76865059  0.58946720  0.22795116    -0.10760
C2039       C  0.78187876  0.57725226  0.19968641     0.03910
C2040       C  0.75961452  0.56856197  0.17517170    -0.10180
H2041       H  0.69126155  0.56377175  0.21963488     0.09510
H2042       H  0.78483683  0.59826150  0.24659135     0.07040
H2043       H  0.76806413  0.56080162  0.15212397     0.06880
C2044       C  0.86335245  0.53864573  0.17710896     0.03920
C2045       C  0.87146924  0.52388377  0.20672512    -0.12230
C2046       C  0.85185149  0.52907654  0.23298124     0.01420
C2047       C  0.82817069  0.55271108  0.23090110    -0.10760
C2048       C  0.81577005  0.56349853  0.20120470     0.03910
C2049       C  0.83342905  0.55550109  0.17395105    -0.10180
H2050       H  0.89279184  0.50894299  0.20962491     0.09510
H2051       H  0.81667099  0.55894656  0.25291851     0.07040
H2052       H  0.82484332  0.56348548  0.15055536     0.06880
C2053       C  0.55312178  0.72195756  0.31995488     0.03920
C2054       C  0.56565349  0.71777484  0.28878415    -0.12230
C2055       C  0.57188810  0.74417714  0.26924655     0.01420
C2056       C  0.56770860  0.77390565  0.28318871    -0.10760
C2057       C  0.54945349  0.77812701  0.31057506     0.03910
C2058       C  0.54283370  0.75208994  0.32972020    -0.10180
H2059       H  0.57037828  0.69430929  0.28006623     0.09510
H2060       H  0.57356780  0.79512705  0.27053929     0.07040
H2061       H  0.52987712  0.75511303  0.35183747     0.06880
C2062       C  0.54105716  0.86480536  0.32277659     0.03920
C2063       C  0.54639868  0.83301952  0.33171364    -0.12230
C2064       C  0.53289101  0.80912010  0.31300613     0.01420
C2065       C  0.51384802  0.81804141  0.28613751    -0.10760
C2066       C  0.52194253  0.84602520  0.27009810     0.03910
C2067       C  0.53168377  0.87111251  0.29020152    -0.10180
H2068       H  0.56048584  0.82704508  0.35319512     0.09510
H2069       H  0.50090905  0.79969477  0.27353949     0.07040
H2070       H  0.53218903  0.89471611  0.28066482     0.06880
C2071       C  0.55732768  0.72493761  0.18017271     0.03920
C2072       C  0.55890337  0.75658325  0.16921169    -0.12230
C2073       C  0.57010990  0.77998554  0.18986541     0.01420
C2074       C  0.58733163  0.77000761  0.21744888    -0.10760
C2075       C  0.57652663  0.74286492  0.23334948     0.03910
C2076       C  0.56193982  0.71960776  0.21377345    -0.10180
H2077       H  0.55174029  0.76354363  0.14516529     0.09510
H2078       H  0.60117539  0.78754468  0.23031474     0.07040
H2079       H  0.55381275  0.69789832  0.22440527     0.06880
C2080       C  0.54754513  0.86698648  0.18300204     0.03920
C2081       C  0.53741215  0.87073731  0.21537270    -0.12230
C2082       C  0.52940903  0.84445500  0.23448465     0.01420
C2083       C  0.53447334  0.81465923  0.22079858    -0.10760
C2084       C  0.55202313  0.81049960  0.19290015     0.03910
C2085       C  0.55543975  0.83617389  0.17246346    -0.10180
H2086       H  0.53569186  0.89395455  0.22550644     0.09510
H2087       H  0.52905279  0.79340574  0.23350726     0.07040
H2088       H  0.56443783  0.83179573  0.14877659     0.06880
O2089       O  0.99190636  0.95623477  0.99900573    -0.85700
O2090       O  0.98929646  0.63465252  0.49953410    -0.85860
O2091       O  0.95125062  0.54222858  0.04861444    -0.87530
O2092       O  0.95266165  0.54484328  0.44643140    -0.86290
O2093       O  0.99160052  0.54181250  0.40815166    -0.85880
O2094       O  0.98982491  0.54161623  0.08930790    -0.87250
O2095       O  0.95098708  0.59566943  0.49768950    -0.85730
O2096       O  0.95287641  0.99520593  0.49768352    -0.85310
Zr2097     Zr  0.97962562  0.54546253  0.49857059     2.84310
O2098       O  0.51144450  0.57724857  0.46633452    -1.07290
O2099       O  0.51189677  0.51370409  0.03266619    -1.08020
C2100       C  0.96189691  0.96616176  0.99785342     1.07410
C2101       C  0.95960654  0.62471445  0.49841096     1.07350
C2102       C  0.96015128  0.54064099  0.07834941     1.10340
C2103       C  0.96165641  0.54236094  0.41717733     1.08110
H2104       H  0.49641956  0.59091130  0.04506930     0.33670
O2105       O  0.51044634  0.57808843  0.03212561    -1.28240
H2106       H  0.49947768  0.49942605  0.45445335     0.33350
O2107       O  0.51267993  0.51280060  0.46797524    -1.29920
O2108       O  0.59650013  0.63488186  0.50082411    -0.85690
O2109       O  0.60005265  0.95736051  0.00166501    -0.87190
O2110       O  0.54377820  0.59780628  0.09114085    -0.85770
O2111       O  0.54394888  0.59554268  0.40838596    -0.85820
O2112       O  0.54778548  0.99261901  0.41021215    -0.85530
O2113       O  0.54727137  0.99605115  0.09349997    -0.85340
O2114       O  0.63520529  0.55017121  0.05558767    -0.85710
O2115       O  0.63721534  0.54923938  0.45165697    -0.85170
O2116       O  0.59572636  0.54782433  0.09366111    -0.86230
O2117       O  0.59844591  0.54574263  0.41208353    -0.85390
O2118       O  0.54667673  0.63555004  0.05204240    -0.85790
O2119       O  0.54744021  0.95694816  0.05590600    -0.85510
O2120       O  0.54996752  0.95584744  0.45036161    -0.85160
O2121       O  0.54362428  0.63436161  0.44661354    -0.85570
O2122       O  0.63642953  0.59730416  0.49995609    -0.85870
O2123       O  0.63831814  0.99648119  0.00256797    -0.87200
Zr2124     Zr  0.54319659  0.60953619  0.49984688     2.83100
Zr2125     Zr  0.54579542  0.98166313  0.00219028     2.83500
Zr2126     Zr  0.54356484  0.54623768  0.06542518     2.84090
Zr2127     Zr  0.54476767  0.54448536  0.43574457     2.83360
Zr2128     Zr  0.60963723  0.54664779  0.50249852     2.84220
O2129       O  0.57801482  0.51368138  0.46998982    -1.07780
O2130       O  0.57612977  0.57815147  0.03364657    -1.07280
C2131       C  0.62674635  0.62621321  0.49972635     1.07380
C2132       C  0.62969424  0.96743008  0.00196742     1.10000
C2133       C  0.54621984  0.62671331  0.08176284     1.07560
C2134       C  0.54410140  0.62460162  0.41728723     1.07920
C2135       C  0.54969470  0.96382986  0.42042676     1.07500
C2136       C  0.54814662  0.96687985  0.08528593     1.07050
C2137       C  0.62547426  0.55002180  0.08480631     1.07480
C2138       C  0.62832689  0.54863500  0.42185864     1.06990
H2139       H  0.59193221  0.50194627  0.04858842     0.33670
O2140       O  0.57778597  0.51449780  0.03473306    -1.28870
H2141       H  0.58956928  0.59052680  0.45544931     0.33690
O2142       O  0.57624153  0.57738980  0.46864901    -1.30260
C2143       C  0.55023730  0.89479987  0.16020783    -0.04550
C2144       C  0.57474260  0.89572874  0.13657108    -0.01660
C2145       C  0.57261557  0.91770194  0.11099470     0.03330
C2146       C  0.55015411  0.94299468  0.11187838    -0.04550
C2147       C  0.53031305  0.94572526  0.13903284    -0.01650
C2148       C  0.52753918  0.92027022  0.16063770     0.03320
C2149       C  0.60338130  0.87556068  0.13918235     0.37970
C2150       C  0.51375716  0.97505885  0.14599012     0.37960
C2151       C  0.49996908  0.92021444  0.18178204     0.36390
C2152       C  0.59476464  0.91489945  0.08456323     0.36390
N2153       N  0.47777839  0.92045450  0.19840759    -0.38430
N2154       N  0.61224340  0.91212766  0.06339180    -0.38430
N2155       N  0.50147460  0.49868756  0.15248460    -0.37880
N2156       N  0.62633162  0.85960798  0.14112050    -0.37880
C2157       C  0.55145260  0.69824848  0.15682593    -0.04550
C2158       C  0.56872605  0.66922988  0.16026910    -0.01660
C2159       C  0.56550439  0.64546679  0.13680593     0.03330
C2160       C  0.54868184  0.65157771  0.10729396    -0.04550
C2161       C  0.53401160  0.68159803  0.10279974    -0.01650
C2162       C  0.53183979  0.70269488  0.12867216     0.03320
C2163       C  0.59117315  0.66368990  0.18714653     0.37970
C2164       C  0.52259989  0.69208968  0.07133436     0.37960
C2165       C  0.50769133  0.72776932  0.12657078     0.36390
C2166       C  0.58154094  0.61539925  0.14275665     0.36390
N2167       N  0.48820790  0.74756292  0.12474429    -0.38430
N2168       N  0.59425270  0.59158133  0.14841421    -0.38430
N2169       N  0.51417859  0.70097953  0.04619114    -0.37880
N2170       N  0.60910049  0.65892360  0.20846502    -0.37880
C2171       C  0.54521013  0.89008005  0.34774242    -0.04550
C2172       C  0.53206146  0.88559868  0.37861494    -0.01660
C2173       C  0.53708111  0.90786567  0.40307703     0.03330
C2174       C  0.55050730  0.93768481  0.39602381    -0.04550
C2175       C  0.56389083  0.94217748  0.36521978    -0.01650
C2176       C  0.56234462  0.91815040  0.34178089     0.03320
C2177       C  0.51181880  0.85860279  0.38534085     0.37970
C2178       C  0.58122235  0.97071321  0.35792696     0.37960
C2179       C  0.57959790  0.92207612  0.31208488     0.36390
C2180       C  0.52855777  0.89919021  0.43554501     0.36390
N2181       N  0.59344504  0.92533623  0.28845756    -0.38430
N2182       N  0.52209215  0.89184996  0.46137222    -0.38430
N2183       N  0.59528901  0.49324853  0.35168054    -0.37880
N2184       N  0.49565197  0.83720709  0.39089034    -0.37880
C2185       C  0.54625750  0.64878619  0.39163798    -0.04550
C2186       C  0.57697736  0.66035277  0.38299812    -0.01640
C2187       C  0.57919448  0.68394320  0.35921785     0.03330
C2188       C  0.55084121  0.69516440  0.34288654    -0.04550
C2189       C  0.52023324  0.68295069  0.35091248    -0.01650
C2190       C  0.51791147  0.66037971  0.37568789     0.03320
C2191       C  0.60631878  0.64815539  0.39882855     0.37970
C2192       C  0.99111767  0.69365443  0.33363493     0.37960
C2193       C  0.98621647  0.64981184  0.38529775     0.36390
C2194       C  0.61052008  0.69769220  0.35250856     0.36390
N2195       N  0.96065480  0.64171967  0.39267143    -0.38430
N2196       N  0.63541266  0.70893295  0.34728573    -0.38430
N2197       N  0.96790769  0.70206314  0.31973289    -0.37880
N2198       N  0.62971280  0.63836844  0.41141709    -0.37880
C2199       C  0.88656363  0.53786459  0.15002748    -0.04550
C2200       C  0.89288326  0.56582784  0.13266615    -0.01660
C2201       C  0.91405658  0.56512892  0.10684851     0.03330
C2202       C  0.93391367  0.53870839  0.10183155    -0.04550
C2203       C  0.92754327  0.51049784  0.11826607    -0.01650
C2204       C  0.90293109  0.50971760  0.14136171     0.03320
C2205       C  0.87893162  0.59590797  0.14167616     0.37970
C2206       C  0.94371770  0.98166435  0.10884426     0.37960
C2207       C  0.89371635  0.97975592  0.15492835     0.36390
C2208       C  0.91228873  0.59006086  0.08323748     0.36390
N2209       N  0.88647024  0.95576592  0.16568232    -0.38430
N2210       N  0.90871773  0.60891065  0.06344523    -0.38430
N2211       N  0.95599346  0.95850641  0.10084027    -0.37880
N2212       N  0.86795732  0.61997841  0.14869616    -0.37880
C2213       C  0.70166448  0.56125465  0.15574811    -0.04550
C2214       C  0.69503249  0.58504234  0.13278441    -0.01660
C2215       C  0.66888817  0.58185286  0.11080945     0.03330
C2216       C  0.65066779  0.55397897  0.11012624    -0.04550
C2217       C  0.65654366  0.53049380  0.13360116    -0.01650
C2218       C  0.68230308  0.53394662  0.15618405     0.03320
C2219       C  0.71436630  0.61340659  0.13249630     0.37970
C2220       C  0.63564052  0.50324471  0.13506161     0.37960
C2221       C  0.68907990  0.50929491  0.17961521     0.36390
C2222       C  0.65822188  0.60865315  0.09154050     0.36390
N2223       N  0.69443445  0.98962492  0.19830579    -0.38430
N2224       N  0.64900772  0.63034569  0.07705160    -0.38430
N2225       N  0.61893028  0.98155739  0.13636691    -0.37880
N2226       N  0.72994827  0.63590843  0.13214764    -0.37880
C2227       C  0.65416816  0.55131653  0.39682268    -0.04550
C2228       C  0.68813083  0.55072580  0.40502439    -0.01660
C2229       C  0.71166539  0.55203008  0.38081277     0.03330
C2230       C  0.70204049  0.54992367  0.34819043    -0.04550
C2231       C  0.66836466  0.54996346  0.34008584    -0.01650
C2232       C  0.64506963  0.55417956  0.36385112     0.03320
C2233       C  0.69966032  0.54906343  0.43813561     0.37970
C2234       C  0.65708573  0.54426325  0.30736393     0.37960
C2235       C  0.61221631  0.56324247  0.35360395     0.36390
C2236       C  0.74572657  0.55640722  0.38966008     0.36390
N2237       N  0.58621230  0.57076081  0.34522351    -0.38430
N2238       N  0.77284053  0.56000537  0.39677161    -0.38430
N2239       N  0.64800175  0.53957021  0.28138689    -0.37880
N2240       N  0.70915953  0.54762534  0.46443593    -0.37880
C2241       C  0.88546679  0.53064342  0.34470736    -0.04550
C2242       C  0.88424514  0.51444134  0.37428424    -0.01660
C2243       C  0.90793182  0.51983827  0.39846351     0.03330
C2244       C  0.93521716  0.53902830  0.39235635    -0.04550
C2245       C  0.93666712  0.55492786  0.36256870    -0.01650
C2246       C  0.91074430  0.55255589  0.33996273     0.03320
C2247       C  0.85936527  0.49105126  0.37973999     0.37970
C2248       C  0.96496899  0.57329419  0.35456146     0.37960
C2249       C  0.90970056  0.57357501  0.31242396     0.36390
C2250       C  0.90399595  0.50456351  0.42924746     0.36390
N2251       N  0.90890370  0.59047930  0.29059108    -0.38430
N2252       N  0.89922261  0.99244696  0.45352293    -0.38430
N2253       N  0.48782484  0.58721822  0.34750583    -0.37880
N2254       N  0.83959210  0.97244765  0.38425416    -0.37880
C2255       C  0.65618534  0.94362886  0.00240171    -0.04550
C2256       C  0.66126932  0.92438357  0.47557479    -0.01660
C2257       C  0.68580153  0.90093469  0.47671378     0.03330
C2258       C  0.70408444  0.89531291  0.00545719    -0.04550
C2259       C  0.69941103  0.91531103  0.03197901    -0.01650
C2260       C  0.67645416  0.94005586  0.02990542     0.03320
C2261       C  0.64186107  0.92929421  0.44647429     0.37970
C2262       C  0.71697631  0.90969425  0.06207638     0.37960
C2263       C  0.67332155  0.96156932  0.05643051     0.36390
C2264       C  0.69261531  0.88314131  0.44803351     0.36390
N2265       N  0.67130804  0.97895586  0.07746428    -0.38430
N2266       N  0.69802290  0.86894665  0.42515835    -0.38430
N2267       N  0.73091698  0.90527043  0.08611580    -0.37880
N2268       N  0.62656070  0.93316409  0.42314338    -0.37880
C2269       C  0.65217835  0.65143320  0.49730053    -0.04550
C2270       C  0.68495087  0.64625605  0.00830343    -0.01660
C2271       C  0.70805491  0.67071828  0.00719828     0.03330
C2272       C  0.69991674  0.69968826  0.49232722    -0.04550
C2273       C  0.66798653  0.70415980  0.47941083    -0.01650
C2274       C  0.64405407  0.68098957  0.48307460     0.03320
C2275       C  0.69553630  0.61593694  0.02103071     0.37970
C2276       C  0.65966911  0.73245246  0.46116456     0.37960
C2277       C  0.61125066  0.68797644  0.47109818     0.36390
C2278       C  0.73987252  0.66623507  0.02249543     0.36390
N2279       N  0.58519689  0.69408114  0.46172082    -0.38430
N2280       N  0.76518353  0.66254998  0.03478687    -0.38430
N2281       N  0.65295299  0.75495151  0.44668259    -0.37880
N2282       N  0.70436250  0.59180342  0.03096522    -0.37880
C2283       C  0.93314931  0.64861279  0.49761127    -0.04550
C2284       C  0.92879811  0.66896461  0.02371047    -0.01660
C2285       C  0.90431047  0.69238285  0.02232140     0.03330
C2286       C  0.88562903  0.69730997  0.49375228    -0.04550
C2287       C  0.88919196  0.67595236  0.46810932    -0.01650
C2288       C  0.91156281  0.65072568  0.47089816     0.03320
C2289       C  0.94735924  0.66386075  0.05328120     0.37970
C2290       C  0.87098394  0.68039685  0.43819783     0.37960
C2291       C  0.91168356  0.62650964  0.44659615     0.36390
C2292       C  0.89774521  0.71054148  0.05085640     0.36390
N2293       N  0.91095513  0.60683925  0.42758312    -0.38430
N2294       N  0.89262859  0.72497578  0.07364589    -0.38430
N2295       N  0.85652035  0.68385273  0.41429305    -0.37880
N2296       N  0.96077523  0.65892309  0.07748940    -0.37880
C2297       C  0.93534631  0.94258745  0.99729635    -0.04550
C2298       C  0.93270347  0.92032396  0.47254460    -0.01660
C2299       C  0.90918026  0.89628558  0.47405379     0.03330
C2300       C  0.88854707  0.89409712  0.00078821    -0.04550
C2301       C  0.88933921  0.91848022  0.02378389    -0.01650
C2302       C  0.91089581  0.94364809  0.02047433     0.03320
C2303       C  0.95058665  0.92510872  0.44341751     0.37970
C2304       C  0.86886363  0.91763840  0.05172256     0.37960
C2305       C  0.90501019  0.97204776  0.03841981     0.36390
C2306       C  0.90532032  0.87487408  0.44737182     0.36390
N2307       N  0.89827215  0.49500474  0.05145307    -0.38430
N2308       N  0.90233557  0.85784353  0.42601251    -0.38430
N2309       N  0.85262046  0.91719048  0.07402986    -0.37880
N2310       N  0.46367121  0.92973338  0.41960882    -0.37880
C2311       C  0.86673246  0.86657383  0.50567954     0.03920
C2312       C  0.87854539  0.83543092  0.00281284    -0.12230
C2313       C  0.86005522  0.81066692  0.01455788     0.01420
C2314       C  0.83418982  0.81832414  0.53446591    -0.10760
C2315       C  0.81616987  0.84592018  0.52739738     0.03910
C2316       C  0.83371810  0.87097338  0.51407264    -0.10180
H2317       H  0.90130852  0.83030099  0.99130320     0.09510
H2318       H  0.82344940  0.79928541  0.54765337     0.07040
H2319       H  0.82222958  0.89364446  0.50999153     0.06880
C2320       C  0.86355824  0.72538482  0.99016002     0.03920
C2321       C  0.87531777  0.75522700  0.99909799    -0.12230
C2322       C  0.85535687  0.78156404  0.99554014     0.01420
C2323       C  0.82551126  0.77870205  0.97905528    -0.10760
C2324       C  0.81096420  0.74926800  0.97328092     0.03910
C2325       C  0.83074615  0.72243522  0.97906230    -0.10180
H2326       H  0.89940613  0.75788571  0.00976616     0.09510
H2327       H  0.81219503  0.80033852  0.97546435     0.07040
H2328       H  0.82083906  0.69925827  0.97543820     0.06880
C2329       C  0.72400490  0.72576552  0.98953986     0.03920
C2330       C  0.75564711  0.72133362  0.97701290    -0.12230
C2331       C  0.77418355  0.74784306  0.96844655     0.01420
C2332       C  0.75651102  0.77618678  0.96505279    -0.10760
C2333       C  0.73160466  0.78205280  0.98664875     0.03910
C2334       C  0.71480888  0.75639622  0.99870678    -0.10180
H2335       H  0.76559334  0.69795513  0.97432556     0.09510
H2336       H  0.76707702  0.79626087  0.95338960     0.07040
H2337       H  0.69441229  0.76016031  0.01430792     0.06880
C2338       C  0.72646173  0.86753214  0.50861010     0.03920
C2339       C  0.75931757  0.87100785  0.51917547    -0.12230
C2340       C  0.77941924  0.84441240  0.52499115     0.01420
C2341       C  0.76490413  0.81480139  0.52138008    -0.10760
C2342       C  0.73505286  0.81128195  0.00529685     0.03910
C2343       C  0.71498691  0.83744078  0.00037427    -0.10180
H2344       H  0.76895719  0.89435403  0.52246112     0.09510
H2345       H  0.77861065  0.79338792  0.52525673     0.07040
H2346       H  0.69105722  0.83442808  0.98945000     0.06880
C2347       C  0.86213598  0.52237452  0.81805924     0.03920
C2348       C  0.82814739  0.52091256  0.82297642    -0.12230
C2349       C  0.80696966  0.50958991  0.79870827     0.01420
C2350       C  0.82136779  0.49787675  0.77078505    -0.10760
C2351       C  0.85205144  0.50928539  0.76232593     0.03910
C2352       C  0.87373742  0.51717713  0.78700471    -0.10180
H2353       H  0.81828173  0.53021530  0.84486088     0.09510
H2354       H  0.80584114  0.48896221  0.75166654     0.07040
H2355       H  0.89877690  0.52194571  0.78123699     0.06880
C2356       C  0.72650453  0.54785465  0.82220080     0.03920
C2357       C  0.75327962  0.52647317  0.82405137    -0.12230
C2358       C  0.77218793  0.52098434  0.79689719     0.01420
C2359       C  0.76061966  0.53363946  0.76771647    -0.10760
C2360       C  0.73908470  0.55917677  0.76690965     0.03910
C2361       C  0.72219443  0.56667307  0.79438970    -0.10180
H2362       H  0.75925239  0.51394693  0.84606183     0.09510
H2363       H  0.77170285  0.52729687  0.74548194     0.07040
H2364       H  0.70471947  0.58590433  0.79368972     0.06880
C2365       C  0.72606056  0.56724126  0.68159390     0.03920
C2366       C  0.71575800  0.57031487  0.71330609    -0.12230
C2367       C  0.73823782  0.57841524  0.73732876     0.01420
C2368       C  0.76865647  0.58947449  0.72794287    -0.10760
C2369       C  0.78188355  0.57726241  0.69967502     0.03910
C2370       C  0.75961788  0.56857221  0.67516201    -0.10180
H2371       H  0.69126396  0.56378797  0.71962581     0.09510
H2372       H  0.78484400  0.59826540  0.74658377     0.07040
H2373       H  0.76806712  0.56081148  0.65211421     0.06880
C2374       C  0.86336563  0.53866431  0.67708891     0.03920
C2375       C  0.87147284  0.52389015  0.70670240    -0.12230
C2376       C  0.85184904  0.52907499  0.73295721     0.01420
C2377       C  0.82817214  0.55271241  0.73088167    -0.10760
C2378       C  0.81577662  0.56351004  0.70118809     0.03910
C2379       C  0.83344197  0.55552304  0.67393314    -0.10180
H2380       H  0.89279325  0.50894641  0.70960143     0.09510
H2381       H  0.81666932  0.55894150  0.75289942     0.07040
H2382       H  0.82485949  0.56351614  0.65053944     0.06880
C2383       C  0.55311984  0.72195791  0.81995424     0.03920
C2384       C  0.56565277  0.71777541  0.78878400    -0.12230
C2385       C  0.57188788  0.74417783  0.76924675     0.01420
C2386       C  0.56770778  0.77390624  0.78318885    -0.10760
C2387       C  0.54945158  0.77812731  0.81057450     0.03910
C2388       C  0.54283121  0.75209017  0.82971930    -0.10180
H2389       H  0.57037809  0.69430992  0.78006619     0.09510
H2390       H  0.57356736  0.79512771  0.77053972     0.07040
H2391       H  0.52987387  0.75511313  0.85183616     0.06880
C2392       C  0.54105598  0.86480536  0.82277589     0.03920
C2393       C  0.54639700  0.83301951  0.83171288    -0.12230
C2394       C  0.53288916  0.80912034  0.81300529     0.01420
C2395       C  0.51384669  0.81804188  0.78613637    -0.10760
C2396       C  0.52194166  0.84602569  0.77009717     0.03910
C2397       C  0.53168301  0.87111280  0.79020079    -0.10180
H2398       H  0.56048388  0.82704485  0.85319448     0.09510
H2399       H  0.50090779  0.79969537  0.77353807     0.07040
H2400       H  0.53218878  0.89471642  0.78066419     0.06880
C2401       C  0.55732865  0.72493825  0.68017312     0.03920
C2402       C  0.55890453  0.75658377  0.66921182    -0.12230
C2403       C  0.57011070  0.77998623  0.68986552     0.01420
C2404       C  0.58733206  0.77000850  0.71744932    -0.10760
C2405       C  0.57652704  0.74286575  0.73334985     0.03910
C2406       C  0.56194043  0.71960858  0.71377383    -0.10180
H2407       H  0.55174167  0.76354392  0.64516529     0.09510
H2408       H  0.60117545  0.78754571  0.73031537     0.07040
H2409       H  0.55381313  0.69789922  0.72440566     0.06880
C2410       C  0.54754499  0.86698701  0.68300126     0.03920
C2411       C  0.53741157  0.87073788  0.71537181    -0.12230
C2412       C  0.52940861  0.84445554  0.73448383     0.01420
C2413       C  0.53447349  0.81465977  0.72079803    -0.10760
C2414       C  0.55202363  0.81050018  0.69289986     0.03910
C2415       C  0.55544005  0.83617438  0.67246299    -0.10180
H2416       H  0.53569086  0.89395514  0.72550544     0.09510
H2417       H  0.52905308  0.79340630  0.73350681     0.07040
H2418       H  0.56443831  0.83179611  0.64877622     0.06880
O2419       O  0.99193632  0.95625296  0.49900757    -0.85700
O2420       O  0.98913021  0.63460784  0.99953975    -0.85860
O2421       O  0.95131709  0.54227936  0.54861311    -0.87530
O2422       O  0.95260337  0.54481186  0.94641809    -0.86290
O2423       O  0.99154881  0.54178657  0.90814294    -0.85880
O2424       O  0.98989120  0.54165048  0.58930445    -0.87250
O2425       O  0.95085146  0.59560182  0.99769008    -0.85730
O2426       O  0.95283401  0.99517710  0.99767466    -0.85310
Zr2427     Zr  0.97954368  0.54541931  0.99856714     2.84310
O2428       O  0.51144272  0.57724630  0.96633224    -1.07290
O2429       O  0.51189475  0.51370551  0.53266734    -1.08020
C2430       C  0.96192842  0.96618572  0.49785973     1.07410
C2431       C  0.95945314  0.62465196  0.99841677     1.07350
C2432       C  0.96021441  0.54068314  0.57834885     1.10340
C2433       C  0.96160531  0.54233490  0.91716580     1.08110
H2434       H  0.49642158  0.59091366  0.54507062     0.33670
O2435       O  0.51044788  0.57809036  0.53212692    -1.28240
H2436       H  0.49947891  0.49942333  0.95445166     0.33350
O2437       O  0.51268101  0.51279842  0.96797314    -1.29920
O2438       O  0.59649279  0.63488373  0.00082242    -0.85690
O2439       O  0.60005349  0.95736014  0.50166303    -0.87190
O2440       O  0.54377729  0.59780643  0.59114275    -0.85770
O2441       O  0.54394783  0.59554215  0.90838397    -0.85820
O2442       O  0.54778283  0.99261699  0.91021239    -0.85530
O2443       O  0.54727424  0.99605236  0.59349975    -0.85340
O2444       O  0.63520298  0.55016981  0.55559046    -0.85710
O2445       O  0.63721628  0.54924086  0.95165260    -0.85170
O2446       O  0.59572401  0.54782454  0.59366397    -0.86230
O2447       O  0.59844588  0.54574167  0.91208023    -0.85390
O2448       O  0.54668055  0.63555011  0.55204454    -0.85790
O2449       O  0.54744228  0.95695002  0.55590513    -0.85510
O2450       O  0.54996649  0.95584534  0.95036183    -0.85160
O2451       O  0.54362031  0.63436085  0.94661172    -0.85570
O2452       O  0.63642503  0.59730909  0.99995147    -0.85870
O2453       O  0.63832083  0.99647910  0.50256582    -0.87200
Zr2454     Zr  0.54319270  0.60953516  0.99984485     2.83100
Zr2455     Zr  0.54579901  0.98166633  0.50218988     2.83500
Zr2456     Zr  0.54356310  0.54623767  0.56542739     2.84090
Zr2457     Zr  0.54476774  0.54448467  0.93574244     2.83360
Zr2458     Zr  0.60963817  0.54664985  0.00249544     2.84220
O2459       O  0.57801559  0.51368202  0.96998816    -1.07780
O2460       O  0.57613023  0.57815043  0.53364957    -1.07280
C2461       C  0.62673920  0.62621737  0.99972258     1.07380
C2462       C  0.62969544  0.96742822  0.50196490     1.10000
C2463       C  0.54622113  0.62671329  0.58176480     1.07560
C2464       C  0.54409885  0.62460107  0.91728542     1.07920
C2465       C  0.54969331  0.96382798  0.92042703     1.07500
C2466       C  0.54814859  0.96688114  0.58528528     1.07050
C2467       C  0.62547178  0.55002187  0.58480889     1.07480
C2468       C  0.62832721  0.54863464  0.92185426     1.06990
H2469       H  0.59192997  0.50194506  0.54859133     0.33670
O2470       O  0.57778415  0.51449695  0.53473593    -1.28870
H2471       H  0.58956695  0.59052789  0.95544672     0.33690
O2472       O  0.57623993  0.57739048  0.96864675    -1.30260
C2473       C  0.55023732  0.89480036  0.66020690    -0.04550
C2474       C  0.57474268  0.89572904  0.63657021    -0.01660
C2475       C  0.57261580  0.91770209  0.61099368     0.03330
C2476       C  0.55015499  0.94299539  0.61187743    -0.04550
C2477       C  0.53031367  0.94572598  0.63903174    -0.01650
C2478       C  0.52753933  0.92027084  0.66063650     0.03320
C2479       C  0.60338142  0.87556103  0.63918174     0.37970
C2480       C  0.51375790  0.97505963  0.64598894     0.37960
C2481       C  0.49996890  0.92021509  0.68178043     0.36390
C2482       C  0.59476403  0.91489846  0.58456170     0.36390
N2483       N  0.47777794  0.92045513  0.69840564    -0.38430
N2484       N  0.61224192  0.91212551  0.56338973    -0.38430
N2485       N  0.50147247  0.49868586  0.65248650    -0.37880
N2486       N  0.62633177  0.85960841  0.64112011    -0.37880
C2487       C  0.55145355  0.69824894  0.65682675    -0.04550
C2488       C  0.56872678  0.66923025  0.66027047    -0.01660
C2489       C  0.56550484  0.64546682  0.63680779     0.03330
C2490       C  0.54868265  0.65157762  0.60729570    -0.04550
C2491       C  0.53401237  0.68159785  0.60280097    -0.01650
C2492       C  0.53184068  0.70269505  0.62867302     0.03320
C2493       C  0.59117395  0.66369052  0.68714789     0.37970
C2494       C  0.52260008  0.69208880  0.57133552     0.37960
C2495       C  0.50769234  0.72776958  0.62657132     0.36390
C2496       C  0.58154051  0.61539898  0.64275919     0.36390
N2497       N  0.48820898  0.74756323  0.62474457    -0.38430
N2498       N  0.59425148  0.59158081  0.64841738    -0.38430
N2499       N  0.51417831  0.70097811  0.54619224    -0.37880
N2500       N  0.60910135  0.65892440  0.70846638    -0.37880
C2501       C  0.54520898  0.89007964  0.84774197    -0.04550
C2502       C  0.53205994  0.88559792  0.87861429    -0.01660
C2503       C  0.53707992  0.90786430  0.90307679     0.03330
C2504       C  0.55050660  0.93768326  0.89602408    -0.04550
C2505       C  0.56389054  0.94217633  0.86522034    -0.01650
C2506       C  0.56234410  0.91814973  0.84178103     0.03320
C2507       C  0.51181651  0.85860243  0.88533957     0.37970
C2508       C  0.58122262  0.97071195  0.85792831     0.37960
C2509       C  0.57959767  0.92207567  0.81208522     0.36390
C2510       C  0.52855639  0.89918846  0.93554462     0.36390
N2511       N  0.59344504  0.92533598  0.78845807    -0.38430
N2512       N  0.52209074  0.89184794  0.96137175    -0.38430
N2513       N  0.59529055  0.49324745  0.85167915    -0.37880
N2514       N  0.49564906  0.83720705  0.89088859    -0.37880
C2515       C  0.54625505  0.64878594  0.89163653    -0.04550
C2516       C  0.57697486  0.66035377  0.88299813    -0.01640
C2517       C  0.57919212  0.68394434  0.85921807     0.03330
C2518       C  0.55083909  0.69516472  0.84288578    -0.04550
C2519       C  0.52023114  0.68295017  0.85091064    -0.01650
C2520       C  0.51790918  0.66037882  0.87568569     0.03320
C2521       C  0.60631605  0.64815769  0.89883004     0.37970
C2522       C  0.99108827  0.69366428  0.83364005     0.37960
C2523       C  0.98617069  0.64981879  0.88529744     0.36390
C2524       C  0.61051754  0.69769437  0.85251005     0.36390
N2525       N  0.96060820  0.64173342  0.89267616    -0.38430
N2526       N  0.63540998  0.70893592  0.84728821    -0.38430
N2527       N  0.96788000  0.70207943  0.81973943    -0.37880
N2528       N  0.62970994  0.63837185  0.91141974    -0.37880
C2529       C  0.88658712  0.53788963  0.65001024    -0.04550
C2530       C  0.89291769  0.56585650  0.63265955    -0.01660
C2531       C  0.91410755  0.56516624  0.60685182     0.03330
C2532       C  0.93396858  0.53874710  0.60183212    -0.04550
C2533       C  0.92757944  0.51053006  0.61825146    -0.01650
C2534       C  0.90295591  0.50974502  0.64133879     0.03320
C2535       C  0.87895752  0.59593204  0.64167124     0.37970
C2536       C  0.94373628  0.98167567  0.60882963     0.37960
C2537       C  0.89373244  0.97976464  0.65491165     0.36390
C2538       C  0.91234817  0.59010562  0.58324864     0.36390
N2539       N  0.88647999  0.95577577  0.66566408    -0.38430
N2540       N  0.90878219  0.60896331  0.56346324    -0.38430
N2541       N  0.95600174  0.95851308  0.60082430    -0.37880
N2542       N  0.86797516  0.61999788  0.64869521    -0.37880
C2543       C  0.70166686  0.56126200  0.65574237    -0.04550
C2544       C  0.69503055  0.58504872  0.63277897    -0.01660
C2545       C  0.66888348  0.58185729  0.61080789     0.03330
C2546       C  0.65066529  0.55398207  0.61012763    -0.04550
C2547       C  0.65654493  0.53049799  0.63360265    -0.01650
C2548       C  0.68230680  0.53395303  0.65618230     0.03320
C2549       C  0.71436300  0.61341376  0.63248711     0.37970
C2550       C  0.63564312  0.50324809  0.63506650     0.37960
C2551       C  0.68908729  0.50930284  0.67961424     0.36390
C2552       C  0.65821247  0.60865666  0.59154003     0.36390
N2553       N  0.69443646  0.98962629  0.69830834    -0.38430
N2554       N  0.64899475  0.63034839  0.57705197    -0.38430
N2555       N  0.61893474  0.98155641  0.63636666    -0.37880
N2556       N  0.72994403  0.63591613  0.63213542    -0.37880
C2557       C  0.65416783  0.55131429  0.89681658    -0.04550
C2558       C  0.68813099  0.55071936  0.90501612    -0.01660
C2559       C  0.71166463  0.55202185  0.88080292     0.03330
C2560       C  0.70203780  0.54992010  0.84818050    -0.04550
C2561       C  0.66836155  0.54996389  0.84007819    -0.01650
C2562       C  0.64506794  0.55417938  0.86384537     0.03320
C2563       C  0.69966169  0.54905453  0.93812688     0.37970
C2564       C  0.65708081  0.54426846  0.80735603     0.37960
C2565       C  0.61221439  0.56324377  0.85360047     0.36390
C2566       C  0.74572702  0.55639271  0.88964880     0.36390
N2567       N  0.58621017  0.57076316  0.84522174    -0.38430
N2568       N  0.77284187  0.55998623  0.89675965    -0.38430
N2569       N  0.64799559  0.53957893  0.78137870    -0.37880
N2570       N  0.70916156  0.54761472  0.96442692    -0.37880
C2571       C  0.88544161  0.53062482  0.84468531    -0.04550
C2572       C  0.88421693  0.51441297  0.87425644    -0.01660
C2573       C  0.90789693  0.51980718  0.89843972     0.03330
C2574       C  0.93517531  0.53900690  0.89234196    -0.04550
C2575       C  0.93662982  0.55491673  0.86256085    -0.01650
C2576       C  0.91071380  0.55254457  0.83994959     0.03320
C2577       C  0.85934259  0.49101518  0.87970264     0.37970
C2578       C  0.96493017  0.57329121  0.85456529     0.37960
C2579       C  0.90967290  0.57356845  0.81241446     0.36390
C2580       C  0.90396547  0.50451701  0.92921682     0.36390
N2581       N  0.90888022  0.59047721  0.79058515    -0.38430
N2582       N  0.89919984  0.99243335  0.95351057    -0.38430
N2583       N  0.48782053  0.58721440  0.84750339    -0.37880
N2584       N  0.83957576  0.97243618  0.88424284    -0.37880
C2585       C  0.65618465  0.94362487  0.50239959    -0.04550
C2586       C  0.66127209  0.92438962  0.97557590    -0.01660
C2587       C  0.68580690  0.90094362  0.97671362     0.03330
C2588       C  0.70407904  0.89530382  0.50545741    -0.04550
C2589       C  0.69940481  0.91530183  0.53197938    -0.01650
C2590       C  0.67645110  0.94004933  0.52990446     0.03320
C2591       C  0.64186277  0.92929893  0.94647590     0.37970
C2592       C  0.71696606  0.90968232  0.56207842     0.37960
C2593       C  0.67331938  0.96156327  0.55642936     0.36390
C2594       C  0.69262267  0.88315203  0.94803255     0.36390
N2595       N  0.67130639  0.97895024  0.57746283    -0.38430
N2596       N  0.69803201  0.86895849  0.92515710    -0.38430
N2597       N  0.73090315  0.90525625  0.58611936    -0.37880
N2598       N  0.62656154  0.93316758  0.92314533    -0.37880
C2599       C  0.65216748  0.65143983  0.99729458    -0.04550
C2600       C  0.68495980  0.64624680  0.50831439    -0.01660
C2601       C  0.70806692  0.67070689  0.50721251     0.03330
C2602       C  0.69989827  0.69969936  0.99231588    -0.04550
C2603       C  0.66796564  0.70416956  0.97940647    -0.01650
C2604       C  0.64403713  0.68099639  0.98307178     0.03320
C2605       C  0.69554018  0.61592703  0.52104390     0.37970
C2606       C  0.65964154  0.73246451  0.96116651     0.37960
C2607       C  0.61123161  0.68798072  0.97109970     0.36390
C2608       C  0.73988095  0.66622100  0.52251610     0.36390
N2609       N  0.58517634  0.69408377  0.96172553    -0.38430
N2610       N  0.76518929  0.66253385  0.53481240    -0.38430
N2611       N  0.65292051  0.75496568  0.94669010    -0.37880
N2612       N  0.70436274  0.59179300  0.53098017    -0.37880
C2613       C  0.93300257  0.64854518  0.99761784    -0.04550
C2614       C  0.92891567  0.66901220  0.52371651    -0.01660
C2615       C  0.90439776  0.69240598  0.52234170     0.03330
C2616       C  0.88555794  0.69729473  0.99372365    -0.04550
C2617       C  0.88910678  0.67592947  0.96808434    -0.01650
C2618       C  0.91144529  0.65068055  0.97088782     0.03320
C2619       C  0.94746142  0.66389600  0.55329314     0.37970
C2620       C  0.87091890  0.68038631  0.93816314     0.37960
C2621       C  0.91158673  0.62647911  0.94657062     0.36390
C2622       C  0.89781636  0.71054802  0.55088361     0.36390
N2623       N  0.91088678  0.60681950  0.92754539    -0.38430
N2624       N  0.89268445  0.72497311  0.57367558    -0.38430
N2625       N  0.85647057  0.68384662  0.91425034    -0.37880
N2626       N  0.96085854  0.65894882  0.57750916    -0.37880
C2627       C  0.93536968  0.94261125  0.49730488    -0.04550
C2628       C  0.93268322  0.92030680  0.97253144    -0.01660
C2629       C  0.90916258  0.89626836  0.97403678     0.03330
C2630       C  0.88856194  0.89411855  0.50080343    -0.04550
C2631       C  0.88935405  0.91850815  0.52379209    -0.01650
C2632       C  0.91091569  0.94367492  0.52048058     0.03320
C2633       C  0.95057186  0.92509621  0.94340797     0.37970
C2634       C  0.86886881  0.91767509  0.55172371     0.37960
C2635       C  0.90502802  0.97207870  0.53841778     0.36390
C2636       C  0.90530744  0.87485926  0.94735231     0.36390
N2637       N  0.89829294  0.49504982  0.55144100    -0.38430
N2638       N  0.90233018  0.85783148  0.92598982    -0.38430
N2639       N  0.85261598  0.91723123  0.57402417    -0.37880
N2640       N  0.46366727  0.92972860  0.91960902    -0.37880
loop_ 
_geom_bond_atom_site_label_1 
_geom_bond_atom_site_label_2 
_geom_bond_distance 
_geom_bond_site_symmetry_2 
_ccdc_geom_bond_type 
C1            C6   1.419       .  A
C1          C332   1.414       .  A
C1          C320   1.499       .  S
C2            C3   1.398       .  A
C2          C331   1.414       .  A
C2            H7   1.082       .  S
C3          C334   1.400       .  A
C3           C12   1.487       .  S
C4            C5   1.409       .  A
C4          C333   1.400       .  A
C4            H8   1.080       .  S
C5            C6   1.411       .  A
C5           C30   1.512       .  S
C6            H9   1.081       .  S
C10          C11   1.413       .  A
C10          C15   1.422       .  A
C10         C306   1.497       .  S
C11          C12   1.388       .  A
C11          H16   1.083       .  S
C12          C13   1.398       .  A
C13          C14   1.413       .  A
C13          H17   1.075       .  S
C14          C15   1.412       .  A
C14          C21   1.521       .  S
C15          H18   1.081       .  S
C19          C20   1.423       .  A
C19          C24   1.412       .  A
C19         C292   1.500       .  S
C20          C21   1.416       .  A
C20          H25   1.080       .  S
C21          C22   1.407       .  A
C22          C23   1.400       .  A
C22          H26   1.080       .  S
C23          C24   1.395       .  A
C23          C32   1.478       .  S
C24          H27   1.084       .  S
C28          C29   1.419       .  A
C28         C363   1.411       .  A
C28         C278   1.494       .  S
C29          C30   1.412       .  A
C29          H34   1.082       .  S
C30          C31   1.407       .  A
C31         C362   1.393       .  A
C31          H35   1.076       .  S
C32          C33   1.391       .  A
C32         C361   1.393       .  A
C33         C358   1.411       .  A
C33          H36   1.083       .  S
C37          C38   1.417       .  A
C37          C42   1.409       .  A
C37         C261   1.496       .  S
C38          C39   1.410       .  A
C38          H43   1.083       .  S
C39          C40   1.410   1_545  A
C39          C48   1.504       .  S
C40          C41   1.406   1_565  A
C40          H44   1.083       .  S
C41          C42   1.391       .  A
C41          C66   1.483       .  S
C42          H45   1.082       .  S
C46          C47   1.421       .  A
C46          C51   1.413       .  A
C46         C250   1.497       .  S
C47          C48   1.407       .  A
C47          H52   1.082       .  S
C48          C49   1.400       .  A
C49          C50   1.395       .  A
C49          H53   1.077       .  S
C50          C51   1.391       .  A
C50          C57   1.477       .  S
C51          H54   1.083       .  S
C55          C56   1.405       .  A
C55          C60   1.411       .  A
C55         C233   1.480       .  S
C56          C57   1.394       .  A
C56          H61   1.084       .  S
C57          C58   1.402       .  A
C58          C59   1.410       .  A
C58          H62   1.082       .  S
C59          C60   1.410       .  A
C59          C68   1.505       .  S
C60          H63   1.082       .  S
C64          C65   1.415       .  A
C64          C69   1.420       .  A
C64         C219   1.495       .  S
C65          C66   1.392       .  A
C65          H70   1.082       .  S
C66          C67   1.394       .  A
C67          C68   1.402       .  A
C67          H71   1.076       .  S
C68          C69   1.404       .  A
C69          H72   1.082       .  S
C73          C74   1.421       .  A
C73          C78   1.412       .  A
C73         C208   1.490       .  S
C74          C75   1.414       .  A
C74          H79   1.083       .  S
C75          C76   1.407       .  A
C75          C95   1.516       .  S
C76          C77   1.392       .  A
C76          H80   1.076       .  S
C77          C78   1.395       .  A
C77          C84   1.484       .  S
C78          H81   1.083       .  S
C82          C83   1.415       .  A
C82          C87   1.428       .  A
C82         C191   1.510       .  S
C83          C84   1.397       .  A
C83          H88   1.084       .  S
C84          C85   1.401       .  A
C85          C86   1.409       .  A
C85          H89   1.081       .  S
C86          C87   1.417       .  A
C86         C102   1.526       .  S
C87          H90   1.079       .  S
C91          C92   1.423       .  A
C91          C96   1.427       .  A
C91         C177   1.519       .  S
C92          C93   1.396       .  A
C92          H97   1.078       .  S
C93          C94   1.399       .  A
C93         C104   1.498       .  S
C94          C95   1.409       .  A
C94          H98   1.081       .  S
C95          C96   1.416       .  A
C96          H99   1.082       .  S
C100        C101   1.432       .  A
C100        C105   1.423       .  A
C100        C163   1.521       .  S
C101        C102   1.416       .  A
C101        H106   1.080       .  S
C102        C103   1.410       .  A
C103        C104   1.394       .  A
C103        H107   1.074       .  S
C104        C105   1.393       .  A
C105        H108   1.080       .  S
O109        C120   1.299       .  A
O109      Zr1465   2.472   1_556  S
O110        C121   1.294       .  A
O110      Zr1464   2.449       .  S
O111        C122   1.287       .  A
O111       Zr447   2.417   1_554  S
O112        C123   1.288       .  A
O112       Zr117   2.419       .  S
O113        C123   1.294       .  A
O113      Zr1467   2.449       .  S
O114        C122   1.293       .  A
O114      Zr1466   2.448       .  S
O115        C121   1.290       .  A
O115       Zr117   2.430       .  S
O116        C450   1.287       .  A
O116       Zr777   2.414       .  S
Zr117       O441   2.417       .  S
Zr117       O776   2.414   1_545  S
Zr117      O1438   2.332       .  S
Zr117      O1769   2.338       .  S
Zr117      O1447   2.339       .  S
Zr117      O1775   2.338       .  S
O118       Zr144   2.349       .  S
O118       Zr147   2.348       .  S
O118      Zr1437   2.332   1_455  S
O119       Zr146   2.335       .  S
O119      Zr1767   2.339   1_454  S
O119       Zr805   2.341   1_545  S
C120        C317   1.489       .  S
C120        O446   1.287       .  A
C121        C303   1.481       .  S
C122        C222   1.475       .  S
C123        C264   1.492       .  S
H124        O125   0.966   1_655  S
O125       Zr146   2.341       .  S
O125      Zr1767   2.338   1_454  S
O125       Zr474   2.347   1_554  S
H126        O127   0.966   1_665  S
O127       Zr147   2.336       .  S
O127      Zr1437   2.339   1_455  S
O127      Zr1135   2.346   1_545  S
O128        C151   1.294       .  A
O128       Zr144   2.449       .  S
O129        C152   1.294       .  A
O129       Zr145   2.448       .  S
O130        C153   1.295       .  A
O130       Zr146   2.449       .  S
O131        C154   1.294       .  A
O131       Zr147   2.449       .  S
O132        C155   1.296       .  A
O132       Zr807   2.461       .  S
O133        C156   1.291       .  A
O133       Zr806   2.433       .  S
O134        C157   1.292       .  A
O134       Zr478   2.436       .  S
O135        C158   1.289       .  A
O135       Zr148   2.430       .  S
O136        C157   1.288       .  A
O136       Zr146   2.423       .  S
O137        C158   1.291       .  A
O137       Zr147   2.436       .  S
O138        C153   1.295       .  A
O138       Zr474   2.452   1_554  S
O139        C156   1.299       .  A
O139       Zr145   2.470       .  S
O140        C155   1.293       .  A
O140       Zr475   2.441       .  S
O141        C154   1.295       .  A
O141       Zr144   2.455       .  S
O142        C151   1.290       .  A
O142       Zr148   2.433       .  S
O143        C152   1.290       .  A
O143      Zr1138   2.430       .  S
Zr144      O1430   2.449   1_455  S
Zr144       O468   2.451       .  S
Zr144       O162   2.340       .  S
Zr144       O455   2.347       .  S
Zr144       O480   2.337       .  S
Zr145      O1429   2.472   1_454  S
Zr145       O470   2.441   1_554  S
Zr145       O779   2.341       .  S
Zr145      O1117   2.346   1_554  S
Zr145      O1139   2.347   1_554  S
Zr145       O820   2.345       .  S
Zr146      O1434   2.448   1_455  S
Zr146       O793   2.433   1_545  S
Zr146       O150   2.342       .  S
Zr146       O160   2.346       .  S
Zr147      O1433   2.449   1_455  S
Zr147       O792   2.461   1_545  S
Zr147       O149   2.342       .  S
Zr147       O162   2.344       .  S
Zr148       O464   2.436       .  S
Zr148      O1133   2.429   1_545  S
Zr148       O149   2.340       .  S
Zr148       O162   2.334       .  S
Zr148       O480   2.334       .  S
Zr148       O490   2.342       .  S
O149      Zr1135   2.347   1_545  S
O150       Zr474   2.337   1_554  S
O150       Zr478   2.334       .  S
C151        C289   1.509       .  S
C152        C275   1.480       .  S
C153        C180   1.509       .  S
C154        C205   1.486       .  S
C155        C194   1.514       .  S
C156        C166   1.501       .  S
C157        C236   1.474       .  S
C158        C247   1.510       .  S
H159        O160   0.966       .  S
O160       Zr805   2.345   1_545  S
O160       Zr478   2.342       .  S
H161        O162   0.965       .  S
C163        C164   1.426       .  A
C163        C168   1.424       .  A
C164        C165   1.416       .  A
C164        C169   1.451       .  S
C165        C166   1.412       .  A
C165        C172   1.450       .  S
C166        C167   1.415       .  A
C167        C168   1.413       .  A
C167        C170   1.450       .  S
C168        C171   1.451   1_455  S
C169        N176   1.158       .  T
C170        N835   1.157       .  T
C171        N173   1.158       .  T
C172        N174   1.157       .  T
N175        C830   1.157       .  T
C177        C178   1.424       .  A
C177        C182   1.420       .  A
C178        C179   1.417       .  A
C178        C183   1.452       .  S
C179        C180   1.420       .  A
C179        C186   1.452       .  S
C180        C181   1.418       .  A
C181        C182   1.412       .  A
C181        C184   1.451       .  S
C182        C185   1.451       .  S
C183        N190   1.158       .  T
C184        N189   1.158       .  T
C185        N187   1.158   1_455  T
C186        N188   1.157       .  T
C191        C192   1.421       .  A
C191        C196   1.416       .  A
C192        C193   1.410       .  A
C192        C197   1.454       .  S
C193        C194   1.421       .  A
C193        C200   1.454       .  S
C194        C195   1.422       .  A
C195        C196   1.420       .  A
C195        C198   1.448       .  S
C196        C199   1.451       .  S
C197        N204   1.158   1_455  T
C198        N863   1.156       .  T
C199        N201   1.158       .  T
C200        N202   1.158       .  T
N203        C858   1.156       .  T
C205        C206   1.412       .  A
C205        C210   1.411       .  A
C206        C207   1.413       .  A
C206        C211   1.451       .  S
C207        C208   1.414       .  A
C207        C214   1.450       .  S
C208        C209   1.411       .  A
C209        C210   1.413       .  A
C209       C1532   1.451   1_455  S
C210       C1533   1.446   1_455  S
C211        N218   1.157       .  T
C212       C1529   1.451       .  S
C212        N217   1.157       .  T
C213       C1530   1.446       .  S
C213        N215   1.155       .  T
C214        N216   1.157       .  T
C219        C220   1.419       .  A
C219        C224   1.421       .  A
C220        C221   1.400       .  A
C220        C225   1.453       .  S
C221        C222   1.403       .  A
C221        C228   1.444       .  S
C222        C223   1.409       .  A
C223        C224   1.413       .  A
C223        C886   1.451   1_545  S
C224        C887   1.450   1_545  S
C225        N232   1.158       .  T
C226        C883   1.451       .  S
C226        N231   1.158       .  T
C227        C884   1.450       .  S
C227        N229   1.157       .  T
C228        N230   1.154       .  T
C233        C234   1.411       .  A
C233        C238   1.415       .  A
C234        C235   1.404       .  A
C234        C239   1.452       .  S
C235        C236   1.409       .  A
C235        C242   1.451       .  S
C236        C237   1.411       .  A
C237        C238   1.410       .  A
C237        C240   1.451       .  S
C238        C241   1.451       .  S
C239        N246   1.157       .  T
C240        N905   1.157   1_545  T
C241        N903   1.157   1_545  T
C242        N244   1.157       .  T
N243        C901   1.157       .  T
N245        C900   1.157       .  T
C247        C248   1.428       .  A
C247        C252   1.422       .  A
C248        C249   1.415       .  A
C248        C253   1.452       .  S
C249        C250   1.413       .  A
C249        C256   1.452       .  S
C250        C251   1.416       .  A
C251        C252   1.404       .  A
C251        C254   1.455       .  S
C252        C255   1.454       .  S
C253        N260   1.158       .  T
C254        N259   1.158       .  T
C255        N257   1.158       .  T
C256        N258   1.158       .  T
C261        C262   1.413       .  A
C261        C266   1.418       .  A
C262        C263   1.407       .  A
C262        C267   1.454   1_545  S
C263        C264   1.420       .  A
C263        C270   1.450       .  S
C264        C265   1.415       .  A
C265        C266   1.411       .  A
C265        C268   1.451       .  S
C266        C269   1.452       .  S
C267        N934   1.157       .  T
C268       N1593   1.157       .  T
C269        N271   1.158       .  T
C270        N932   1.156   1_545  T
N272        C930   1.156       .  T
N273       C1588   1.157       .  T
N274        C927   1.157       .  T
C275        C280   1.409       .  A
C275        C606   1.409   1_554  A
C276        C277   1.411       .  A
C276        C605   1.409       .  A
C276        C281   1.451       .  S
C277        C608   1.419       .  A
C277        C284   1.451       .  S
C278        C279   1.416       .  A
C278        C607   1.419   1_554  A
C279        C280   1.408       .  A
C279        C282   1.452       .  S
C280        C283   1.448       .  S
C281        N288   1.157       .  T
C282        N287   1.157       .  T
C283        N285   1.155       .  T
C284        N286   1.157       .  T
C289        C294   1.422       .  A
C289        C620   1.427       .  A
C290        C291   1.416       .  A
C290        C619   1.427   1_554  A
C290        C295   1.452       .  S
C291        C622   1.412   1_554  A
C291        C298   1.451       .  S
C292        C293   1.417       .  A
C292        C621   1.412       .  A
C293        C294   1.409       .  A
C293        C296   1.455       .  S
C294        C297   1.454       .  S
C295        N302   1.158       .  T
C296        N301   1.157       .  T
C297        N299   1.158       .  T
C298        N300   1.157       .  T
C303        C308   1.410       .  A
C303        C634   1.410       .  A
C304        C305   1.410       .  A
C304        C633   1.410   1_554  A
C304        C309   1.450       .  S
C305        C636   1.419   1_554  A
C305        C312   1.453       .  S
C306        C307   1.418       .  A
C306        C635   1.419       .  A
C307        C308   1.409       .  A
C307        C310   1.451       .  S
C308        C311   1.450       .  S
C309        N316   1.157       .  T
C310        N315   1.157       .  T
C311        N313   1.157       .  T
C312        N314   1.157       .  T
C317        C322   1.410   1_556  A
C317        C648   1.410       .  A
C318        C319   1.416       .  A
C318        C647   1.410       .  A
C318        C323   1.449       .  S
C319        C650   1.419       .  A
C319        C326   1.450       .  S
C320        C321   1.418       .  A
C320        C649   1.419   1_554  A
C321        C322   1.405       .  A
C321        C324   1.453       .  S
C322        C325   1.447       .  S
C323       N1650   1.157       .  T
C324        N329   1.158       .  T
C325        N987   1.156       .  T
C326        N328   1.157       .  T
N327        C985   1.156       .  T
N330       C1643   1.157       .  T
C331        C336   1.419       .  A
C331        C650   1.498       .  S
C332        C333   1.398       .  A
C332        H337   1.082   1_554  S
C333        C342   1.487   1_554  S
C334        C335   1.409       .  A
C334        H338   1.080       .  S
C335        C336   1.411       .  A
C335        C360   1.512       .  S
C336        H339   1.081       .  S
C340        C341   1.413       .  A
C340        C345   1.422       .  A
C340        C636   1.497       .  S
C341        C342   1.388       .  A
C341        H346   1.083   1_556  S
C342        C343   1.398       .  A
C343        C344   1.413       .  A
C343        H347   1.075       .  S
C344        C345   1.412       .  A
C344        C351   1.521       .  S
C345        H348   1.081       .  S
C349        C350   1.423       .  A
C349        C354   1.412       .  A
C349        C622   1.500       .  S
C350        C351   1.416       .  A
C350        H355   1.080       .  S
C351        C352   1.407       .  A
C352        C353   1.400       .  A
C352        H356   1.080       .  S
C353        C354   1.395       .  A
C353        C362   1.478   1_556  S
C354        H357   1.084   1_556  S
C358        C359   1.419       .  A
C358        C608   1.494       .  S
C359        C360   1.412       .  A
C359        H364   1.082       .  S
C360        C361   1.407       .  A
C361        H365   1.076       .  S
C362        C363   1.391       .  A
C363        H366   1.083   1_554  S
C367        C368   1.417       .  A
C367        C372   1.409       .  A
C367        C591   1.496       .  S
C368        C369   1.410       .  A
C368        H373   1.083       .  S
C369        C370   1.410   1_545  A
C369        C378   1.504       .  S
C370        C371   1.406   1_565  A
C370        H374   1.083       .  S
C371        C372   1.391       .  A
C371        C396   1.483       .  S
C372        H375   1.082       .  S
C376        C377   1.421       .  A
C376        C381   1.413       .  A
C376        C580   1.497       .  S
C377        C378   1.408       .  A
C377        H382   1.082       .  S
C378        C379   1.400       .  A
C379        C380   1.395       .  A
C379        H383   1.077       .  S
C380        C381   1.391       .  A
C380        C387   1.477       .  S
C381        H384   1.083       .  S
C385        C386   1.405       .  A
C385        C390   1.411       .  A
C385        C563   1.480       .  S
C386        C387   1.394       .  A
C386        H391   1.084       .  S
C387        C388   1.402       .  A
C388        C389   1.410       .  A
C388        H392   1.082       .  S
C389        C390   1.410       .  A
C389        C398   1.505       .  S
C390        H393   1.082       .  S
C394        C395   1.415       .  A
C394        C399   1.420       .  A
C394        C549   1.495       .  S
C395        C396   1.392       .  A
C395        H400   1.082       .  S
C396        C397   1.394       .  A
C397        C398   1.402       .  A
C397        H401   1.076       .  S
C398        C399   1.405       .  A
C399        H402   1.082       .  S
C403        C404   1.421       .  A
C403        C408   1.412       .  A
C403        C538   1.490       .  S
C404        C405   1.414       .  A
C404        H409   1.083       .  S
C405        C406   1.407       .  A
C405        C425   1.516       .  S
C406        C407   1.392       .  A
C406        H410   1.076       .  S
C407        C408   1.395       .  A
C407        C414   1.484       .  S
C408        H411   1.083       .  S
C412        C413   1.415       .  A
C412        C417   1.428       .  A
C412        C521   1.510       .  S
C413        C414   1.397       .  A
C413        H418   1.084       .  S
C414        C415   1.401       .  A
C415        C416   1.409       .  A
C415        H419   1.081       .  S
C416        C417   1.417       .  A
C416        C432   1.526       .  S
C417        H420   1.079       .  S
C421        C422   1.423       .  A
C421        C426   1.427       .  A
C421        C507   1.519       .  S
C422        C423   1.396       .  A
C422        H427   1.078       .  S
C423        C424   1.399       .  A
C423        C434   1.498       .  S
C424        C425   1.409       .  A
C424        H428   1.081       .  S
C425        C426   1.416       .  A
C426        H429   1.082       .  S
C430        C431   1.432       .  A
C430        C435   1.423       .  A
C430        C493   1.521       .  S
C431        C432   1.416       .  A
C431        H436   1.080       .  S
C432        C433   1.410       .  A
C433        C434   1.394       .  A
C433        H437   1.074       .  S
C434        C435   1.393       .  A
C435        H438   1.080       .  S
O439        C450   1.299       .  A
O439      Zr1795   2.472       .  S
O440        C451   1.294       .  A
O440      Zr1794   2.449       .  S
O441        C452   1.287       .  A
O442        C453   1.288       .  A
O442       Zr447   2.419       .  S
O443        C453   1.294       .  A
O443      Zr1797   2.449       .  S
O444        C452   1.293       .  A
O444      Zr1796   2.448       .  S
O445        C451   1.290       .  A
O445       Zr447   2.430       .  S
O446      Zr1107   2.414       .  S
Zr447      O1106   2.414   1_545  S
Zr447      O1768   2.332       .  S
Zr447      O1439   2.338   1_556  S
Zr447      O1777   2.339       .  S
Zr447      O1445   2.339   1_556  S
O448      Zr1767   2.332   1_455  S
O448       Zr474   2.349       .  S
O448       Zr477   2.348       .  S
O449      Zr1437   2.338   1_455  S
O449      Zr1135   2.341   1_545  S
O449       Zr476   2.335       .  S
C450        C647   1.489       .  S
C451        C633   1.481       .  S
C452        C552   1.475       .  S
C453        C594   1.492       .  S
H454        O455   0.966   1_655  S
O455      Zr1437   2.338   1_455  S
O455       Zr476   2.340       .  S
H456        O457   0.966   1_665  S
O457      Zr1767   2.339   1_455  S
O457       Zr805   2.346   1_546  S
O457       Zr477   2.336       .  S
O458        C481   1.294   1_554  A
O458       Zr474   2.447   1_554  S
O459        C482   1.294       .  A
O459       Zr475   2.448       .  S
O460        C483   1.295       .  A
O460       Zr476   2.449       .  S
O461        C484   1.294       .  A
O461       Zr477   2.449       .  S
O462        C485   1.297       .  A
O462      Zr1137   2.461       .  S
O463        C486   1.291       .  A
O463      Zr1136   2.433       .  S
O464        C487   1.292       .  A
O465        C488   1.289       .  A
O465       Zr478   2.430   1_556  S
O466        C487   1.288       .  A
O466       Zr476   2.423       .  S
O467        C488   1.292       .  A
O467       Zr477   2.437       .  S
O468        C483   1.295       .  A
O469        C486   1.299       .  A
O469       Zr475   2.470       .  S
O470        C485   1.293       .  A
O471        C484   1.295       .  A
O471       Zr474   2.455       .  S
O472        C481   1.290       .  A
O472       Zr478   2.434   1_556  S
O473        C482   1.290       .  A
O473       Zr808   2.429       .  S
Zr474      O1760   2.448   1_455  S
Zr474       O492   2.340       .  S
Zr475      O1759   2.472   1_455  S
Zr475      O1109   2.341       .  S
Zr475       O787   2.346       .  S
Zr475       O809   2.347       .  S
Zr475      O1150   2.345       .  S
Zr476      O1764   2.448   1_455  S
Zr476      O1123   2.433   1_545  S
Zr476       O480   2.342       .  S
Zr476       O490   2.347       .  S
Zr477      O1763   2.449   1_455  S
Zr477      O1122   2.461   1_545  S
Zr477       O479   2.341       .  S
Zr477       O492   2.344       .  S
Zr478       O803   2.430   1_545  S
Zr478       O479   2.339   1_554  S
Zr478       O492   2.334   1_554  S
O479       Zr805   2.347   1_546  S
C481        C619   1.509       .  S
C482        C605   1.479       .  S
C483        C510   1.509       .  S
C484        C535   1.486       .  S
C485        C524   1.514       .  S
C486        C496   1.501       .  S
C487        C566   1.473       .  S
C488        C577   1.511       .  S
H489        O490   0.966       .  S
O490      Zr1135   2.345   1_545  S
H491        O492   0.965       .  S
C493        C494   1.426       .  A
C493        C498   1.424       .  A
C494        C495   1.416       .  A
C494        C499   1.451       .  S
C495        C496   1.412       .  A
C495        C502   1.450       .  S
C496        C497   1.415       .  A
C497        C498   1.413       .  A
C497        C500   1.450       .  S
C498        C501   1.451   1_455  S
C499        N506   1.158       .  T
C500       N1165   1.157       .  T
C501        N503   1.158       .  T
C502        N504   1.157       .  T
N505       C1160   1.157       .  T
C507        C508   1.424       .  A
C507        C512   1.420       .  A
C508        C509   1.417       .  A
C508        C513   1.452       .  S
C509        C510   1.420       .  A
C509        C516   1.452       .  S
C510        C511   1.418       .  A
C511        C512   1.412       .  A
C511        C514   1.451       .  S
C512        C515   1.451       .  S
C513        N520   1.158       .  T
C514        N519   1.158       .  T
C515        N517   1.158   1_455  T
C516        N518   1.157       .  T
C521        C522   1.421       .  A
C521        C526   1.416       .  A
C522        C523   1.410       .  A
C522        C527   1.454       .  S
C523        C524   1.421       .  A
C523        C530   1.454       .  S
C524        C525   1.422       .  A
C525        C526   1.420       .  A
C525        C528   1.448       .  S
C526        C529   1.451       .  S
C527        N534   1.158   1_455  T
C528       N1193   1.156       .  T
C529        N531   1.158       .  T
C530        N532   1.158       .  T
N533       C1188   1.156       .  T
C535        C536   1.412       .  A
C535        C540   1.411       .  A
C536        C537   1.413       .  A
C536        C541   1.451       .  S
C537        C538   1.414       .  A
C537        C544   1.450       .  S
C538        C539   1.411       .  A
C539        C540   1.413       .  A
C539       C1862   1.451   1_455  S
C540       C1863   1.446   1_455  S
C541        N548   1.157       .  T
C542       C1859   1.451       .  S
C542        N547   1.157       .  T
C543       C1860   1.446       .  S
C543        N545   1.155       .  T
C544        N546   1.157       .  T
C549        C550   1.419       .  A
C549        C554   1.421       .  A
C550        C551   1.400       .  A
C550        C555   1.453       .  S
C551        C552   1.403       .  A
C551        C558   1.444       .  S
C552        C553   1.409       .  A
C553        C554   1.413       .  A
C553       C1216   1.451   1_545  S
C554       C1217   1.450   1_545  S
C555        N562   1.158       .  T
C556       C1213   1.451       .  S
C556        N561   1.158       .  T
C557       C1214   1.450       .  S
C557        N559   1.157       .  T
C558        N560   1.154       .  T
C563        C564   1.411       .  A
C563        C568   1.415       .  A
C564        C565   1.404       .  A
C564        C569   1.452       .  S
C565        C566   1.409       .  A
C565        C572   1.451       .  S
C566        C567   1.411       .  A
C567        C568   1.410       .  A
C567        C570   1.451       .  S
C568        C571   1.451       .  S
C569        N576   1.157       .  T
C570       N1235   1.157   1_545  T
C571       N1233   1.157   1_545  T
C572        N574   1.157       .  T
N573       C1231   1.157       .  T
N575       C1230   1.157       .  T
C577        C578   1.428       .  A
C577        C582   1.422       .  A
C578        C579   1.415       .  A
C578        C583   1.452       .  S
C579        C580   1.413       .  A
C579        C586   1.452       .  S
C580        C581   1.416       .  A
C581        C582   1.405       .  A
C581        C584   1.454       .  S
C582        C585   1.454       .  S
C583        N590   1.158       .  T
C584        N589   1.158       .  T
C585        N587   1.158       .  T
C586        N588   1.158       .  T
C591        C592   1.413       .  A
C591        C596   1.418       .  A
C592        C593   1.407       .  A
C592        C597   1.454   1_545  S
C593        C594   1.420       .  A
C593        C600   1.450       .  S
C594        C595   1.415       .  A
C595        C596   1.411       .  A
C595        C598   1.451       .  S
C596        C599   1.452       .  S
C597       N1264   1.157       .  T
C598       N1923   1.157       .  T
C599        N601   1.158       .  T
C600       N1262   1.156   1_545  T
N602       C1260   1.156       .  T
N603       C1918   1.157       .  T
N604       C1257   1.157       .  T
C605        C610   1.409       .  A
C606        C607   1.412       .  A
C606        C611   1.450       .  S
C607        C614   1.451       .  S
C608        C609   1.416       .  A
C609        C610   1.408       .  A
C609        C612   1.452       .  S
C610        C613   1.448       .  S
C611        N618   1.157       .  T
C612        N617   1.157       .  T
C613        N615   1.155       .  T
C614        N616   1.157       .  T
C619        C624   1.422       .  A
C620        C621   1.417       .  A
C620        C625   1.452       .  S
C621        C628   1.452       .  S
C622        C623   1.417       .  A
C623        C624   1.409       .  A
C623        C626   1.455       .  S
C624        C627   1.454       .  S
C625        N632   1.158       .  T
C626        N631   1.157       .  T
C627        N629   1.158       .  T
C628        N630   1.158       .  T
C633        C638   1.410       .  A
C634        C635   1.410       .  A
C634        C639   1.450       .  S
C635        C642   1.452       .  S
C636        C637   1.417       .  A
C637        C638   1.409       .  A
C637        C640   1.451       .  S
C638        C641   1.450       .  S
C639        N646   1.157       .  T
C640        N645   1.157       .  T
C641        N643   1.157       .  T
C642        N644   1.157       .  T
C647        C652   1.410       .  A
C648        C649   1.416       .  A
C648        C653   1.449       .  S
C649        C656   1.450       .  S
C650        C651   1.418       .  A
C651        C652   1.404       .  A
C651        C654   1.453       .  S
C652        C655   1.447       .  S
C653       N1980   1.157       .  T
C654        N659   1.158       .  T
C655       N1317   1.156       .  T
C656        N658   1.157       .  T
N657       C1315   1.156       .  T
N660       C1973   1.157       .  T
C661        C992   1.414       .  A
C661        C666   1.419       .  A
C661        C980   1.499       .  S
C662        C991   1.414       .  A
C662        C663   1.398       .  A
C662        H667   1.082       .  S
C663        C994   1.400       .  A
C663        C672   1.487       .  S
C664        C993   1.400       .  A
C664        C665   1.409       .  A
C664        H668   1.080       .  S
C665        C666   1.411       .  A
C665        C690   1.512       .  S
C666        H669   1.081       .  S
C670        C671   1.413       .  A
C670        C675   1.422       .  A
C670        C966   1.497       .  S
C671        C672   1.388       .  A
C671        H676   1.083       .  S
C672        C673   1.398       .  A
C673        C674   1.413       .  A
C673        H677   1.075       .  S
C674        C675   1.412       .  A
C674        C681   1.521       .  S
C675        H678   1.081       .  S
C679        C680   1.423       .  A
C679        C684   1.412       .  A
C679        C952   1.500       .  S
C680        C681   1.416       .  A
C680        H685   1.080       .  S
C681        C682   1.407       .  A
C682        C683   1.400       .  A
C682        H686   1.080       .  S
C683        C684   1.395       .  A
C683        C692   1.478       .  S
C684        H687   1.084       .  S
C688        C689   1.419       .  A
C688       C1023   1.411       .  A
C688        C938   1.494       .  S
C689        C690   1.412       .  A
C689        H694   1.082       .  S
C690        C691   1.407       .  A
C691       C1022   1.393       .  A
C691        H695   1.076       .  S
C692       C1021   1.393       .  A
C692        C693   1.391       .  A
C693       C1018   1.411       .  A
C693        H696   1.083       .  S
C697        C698   1.417       .  A
C697        C702   1.409       .  A
C697        C921   1.496       .  S
C698        C699   1.410       .  A
C698        H703   1.083       .  S
C699        C700   1.410       .  A
C699        C708   1.504       .  S
C700        C701   1.406       .  A
C700        H704   1.083       .  S
C701        C702   1.391       .  A
C701        C726   1.483       .  S
C702        H705   1.082       .  S
C706        C707   1.421       .  A
C706        C711   1.413       .  A
C706        C910   1.497       .  S
C707        C708   1.407       .  A
C707        H712   1.082       .  S
C708        C709   1.400       .  A
C709        C710   1.395       .  A
C709        H713   1.077       .  S
C710        C711   1.391       .  A
C710        C717   1.477       .  S
C711        H714   1.083       .  S
C715        C716   1.405       .  A
C715        C720   1.411       .  A
C715        C893   1.480       .  S
C716        C717   1.394       .  A
C716        H721   1.084       .  S
C717        C718   1.402       .  A
C718        C719   1.410       .  A
C718        H722   1.082       .  S
C719        C720   1.410       .  A
C719        C728   1.505       .  S
C720        H723   1.082       .  S
C724        C725   1.415       .  A
C724        C729   1.420       .  A
C724        C879   1.495       .  S
C725        C726   1.392       .  A
C725        H730   1.082       .  S
C726        C727   1.394       .  A
C727        C728   1.402       .  A
C727        H731   1.076       .  S
C728        C729   1.404       .  A
C729        H732   1.082       .  S
C733        C734   1.421       .  A
C733        C738   1.412       .  A
C733        C868   1.490       .  S
C734        C735   1.414       .  A
C734        H739   1.083       .  S
C735        C736   1.407       .  A
C735        C755   1.516       .  S
C736        C737   1.392       .  A
C736        H740   1.076       .  S
C737        C738   1.395       .  A
C737        C744   1.484       .  S
C738        H741   1.083       .  S
C742        C743   1.415       .  A
C742        C747   1.428       .  A
C742        C851   1.510       .  S
C743        C744   1.397       .  A
C743        H748   1.084       .  S
C744        C745   1.401       .  A
C745        C746   1.409       .  A
C745        H749   1.081       .  S
C746        C747   1.417       .  A
C746        C762   1.526       .  S
C747        H750   1.079       .  S
C751        C752   1.423       .  A
C751        C756   1.427       .  A
C751        C837   1.519       .  S
C752        C753   1.396       .  A
C752        H757   1.078       .  S
C753        C754   1.399       .  A
C753        C764   1.498       .  S
C754        C755   1.409       .  A
C754        H758   1.081       .  S
C755        C756   1.416       .  A
C756        H759   1.082       .  S
C760        C761   1.432       .  A
C760        C765   1.423       .  A
C760        C823   1.521       .  S
C761        C762   1.416       .  A
C761        H766   1.080       .  S
C762        C763   1.410       .  A
C763        C764   1.394       .  A
C763        H767   1.074       .  S
C764        C765   1.393       .  A
C765        H768   1.080       .  S
O769        C780   1.299       .  A
O769      Zr2125   2.472   1_556  S
O770        C781   1.294       .  A
O770      Zr2124   2.449       .  S
O771        C782   1.287       .  A
O771      Zr1107   2.417   1_554  S
O772        C783   1.288       .  A
O772       Zr777   2.419       .  S
O773        C783   1.294       .  A
O773      Zr2127   2.449       .  S
O774        C782   1.293       .  A
O774      Zr2126   2.448       .  S
O775        C781   1.290       .  A
O775       Zr777   2.430       .  S
O776       C1110   1.287       .  A
Zr777      O1101   2.417       .  S
Zr777      O2098   2.332       .  S
Zr777      O2429   2.338       .  S
Zr777      O2107   2.339       .  S
Zr777      O2435   2.338       .  S
O778      Zr2097   2.332   1_455  S
O778       Zr804   2.349       .  S
O778       Zr807   2.348       .  S
O779      Zr2427   2.339   1_454  S
O779       Zr806   2.335       .  S
C780        C977   1.489       .  S
C780       O1106   1.287       .  A
C781        C963   1.481       .  S
C782        C882   1.475       .  S
C783        C924   1.492       .  S
H784        O785   0.966   1_655  S
O785      Zr2427   2.338   1_454  S
O785      Zr1134   2.347   1_554  S
O785       Zr806   2.341       .  S
H786        O787   0.966   1_655  S
O787      Zr2097   2.339   1_455  S
O787       Zr807   2.336       .  S
O788        C811   1.294       .  A
O788       Zr804   2.449       .  S
O789        C812   1.294       .  A
O789       Zr805   2.448       .  S
O790        C813   1.295       .  A
O790       Zr806   2.449       .  S
O791        C814   1.294       .  A
O791       Zr807   2.449       .  S
O792        C815   1.296       .  A
O793        C816   1.291       .  A
O794        C817   1.292       .  A
O794      Zr1138   2.436       .  S
O795        C818   1.289       .  A
O795       Zr808   2.430       .  S
O796        C817   1.288       .  A
O796       Zr806   2.423       .  S
O797        C818   1.291       .  A
O797       Zr807   2.436       .  S
O798        C813   1.295       .  A
O798      Zr1134   2.452   1_554  S
O799        C816   1.299       .  A
O799       Zr805   2.470       .  S
O800        C815   1.293       .  A
O800      Zr1135   2.441       .  S
O801        C814   1.295       .  A
O801       Zr804   2.455       .  S
O802        C811   1.290       .  A
O802       Zr808   2.433       .  S
O803        C812   1.290       .  A
Zr804      O2090   2.449   1_455  S
Zr804      O1128   2.451       .  S
Zr804      O1115   2.347       .  S
Zr804      O1140   2.337       .  S
Zr804       O822   2.340       .  S
Zr805      O2089   2.472   1_454  S
Zr805      O1130   2.441   1_554  S
Zr806      O2094   2.448   1_455  S
Zr806       O810   2.342       .  S
Zr806       O820   2.346       .  S
Zr807      O2093   2.449   1_455  S
Zr807       O809   2.342       .  S
Zr807       O822   2.344       .  S
Zr808      O1124   2.436       .  S
Zr808       O809   2.340       .  S
Zr808      O1140   2.334       .  S
Zr808       O822   2.334       .  S
Zr808      O1150   2.342       .  S
O810      Zr1134   2.337   1_554  S
O810      Zr1138   2.334       .  S
C811        C949   1.509       .  S
C812        C935   1.480       .  S
C813        C840   1.509       .  S
C814        C865   1.486       .  S
C815        C854   1.514       .  S
C816        C826   1.501       .  S
C817        C896   1.474       .  S
C818        C907   1.510       .  S
H819        O820   0.966       .  S
O820      Zr1138   2.342       .  S
H821        O822   0.965       .  S
C823        C824   1.426       .  A
C823        C828   1.424       .  A
C824        C825   1.416       .  A
C824        C829   1.451       .  S
C825        C826   1.412       .  A
C825        C832   1.450       .  S
C826        C827   1.415       .  A
C827        C828   1.413       .  A
C827        C830   1.450       .  S
C828        C831   1.451   1_455  S
C829        N836   1.158       .  T
C831        N833   1.158       .  T
C832        N834   1.157       .  T
C837        C838   1.424       .  A
C837        C842   1.420       .  A
C838        C839   1.417       .  A
C838        C843   1.452       .  S
C839        C840   1.420       .  A
C839        C846   1.452       .  S
C840        C841   1.418       .  A
C841        C842   1.412       .  A
C841        C844   1.451       .  S
C842        C845   1.451       .  S
C843        N850   1.158       .  T
C844        N849   1.158       .  T
C845        N847   1.158   1_455  T
C846        N848   1.157       .  T
C851        C852   1.421       .  A
C851        C856   1.416       .  A
C852        C853   1.410       .  A
C852        C857   1.454       .  S
C853        C854   1.421       .  A
C853        C860   1.454       .  S
C854        C855   1.422       .  A
C855        C856   1.420       .  A
C855        C858   1.448       .  S
C856        C859   1.451       .  S
C857        N864   1.158   1_455  T
C859        N861   1.158       .  T
C860        N862   1.158       .  T
C865        C866   1.412       .  A
C865        C870   1.411       .  A
C866        C867   1.413       .  A
C866        C871   1.451       .  S
C867        C868   1.414       .  A
C867        C874   1.450       .  S
C868        C869   1.411       .  A
C869        C870   1.413       .  A
C869       C2192   1.451   1_455  S
C870       C2193   1.446   1_455  S
C871        N878   1.157       .  T
C872       C2189   1.451       .  S
C872        N877   1.157       .  T
C873       C2190   1.446       .  S
C873        N875   1.155       .  T
C874        N876   1.157       .  T
C879        C880   1.419       .  A
C879        C884   1.421       .  A
C880        C881   1.400       .  A
C880        C885   1.453       .  S
C881        C882   1.403       .  A
C881        C888   1.444       .  S
C882        C883   1.409       .  A
C883        C884   1.413       .  A
C885        N892   1.158       .  T
C886        N891   1.158       .  T
C887        N889   1.157       .  T
C888        N890   1.154       .  T
C893        C894   1.411       .  A
C893        C898   1.415       .  A
C894        C895   1.404       .  A
C894        C899   1.452       .  S
C895        C896   1.409       .  A
C895        C902   1.451       .  S
C896        C897   1.411       .  A
C897        C898   1.410       .  A
C897        C900   1.451       .  S
C898        C901   1.451       .  S
C899        N906   1.157       .  T
C902        N904   1.157       .  T
C907        C908   1.428       .  A
C907        C912   1.422       .  A
C908        C909   1.415       .  A
C908        C913   1.452       .  S
C909        C910   1.413       .  A
C909        C916   1.452       .  S
C910        C911   1.416       .  A
C911        C912   1.404       .  A
C911        C914   1.455       .  S
C912        C915   1.454       .  S
C913        N920   1.158       .  T
C914        N919   1.158       .  T
C915        N917   1.158       .  T
C916        N918   1.158       .  T
C921        C922   1.413       .  A
C921        C926   1.418       .  A
C922        C923   1.407       .  A
C922        C927   1.454       .  S
C923        C924   1.420       .  A
C923        C930   1.450       .  S
C924        C925   1.415       .  A
C925        C926   1.411       .  A
C925        C928   1.451       .  S
C926        C929   1.452       .  S
C928       N2253   1.157       .  T
C929        N931   1.158       .  T
N933       C2248   1.157       .  T
C935       C1266   1.409   1_554  A
C935        C940   1.409       .  A
C936       C1265   1.409       .  A
C936        C937   1.411       .  A
C936        C941   1.451       .  S
C937       C1268   1.419       .  A
C937        C944   1.451       .  S
C938       C1267   1.419   1_554  A
C938        C939   1.416       .  A
C939        C940   1.408       .  A
C939        C942   1.452       .  S
C940        C943   1.448       .  S
C941        N948   1.157       .  T
C942        N947   1.157       .  T
C943        N945   1.155       .  T
C944        N946   1.157       .  T
C949       C1280   1.427       .  A
C949        C954   1.422       .  A
C950       C1279   1.427   1_554  A
C950        C951   1.416       .  A
C950        C955   1.452       .  S
C951       C1282   1.412   1_554  A
C951        C958   1.451       .  S
C952       C1281   1.412       .  A
C952        C953   1.417       .  A
C953        C954   1.409       .  A
C953        C956   1.455       .  S
C954        C957   1.454       .  S
C955        N962   1.158       .  T
C956        N961   1.157       .  T
C957        N959   1.158       .  T
C958        N960   1.157       .  T
C963       C1294   1.410       .  A
C963        C968   1.410       .  A
C964       C1293   1.410   1_554  A
C964        C965   1.410       .  A
C964        C969   1.450       .  S
C965       C1296   1.419   1_554  A
C965        C972   1.453       .  S
C966       C1295   1.419       .  A
C966        C967   1.418       .  A
C967        C968   1.409       .  A
C967        C970   1.451       .  S
C968        C971   1.450       .  S
C969        N976   1.157       .  T
C970        N975   1.157       .  T
C971        N973   1.157       .  T
C972        N974   1.157       .  T
C977       C1308   1.410       .  A
C977        C982   1.410   1_556  A
C978       C1307   1.410       .  A
C978        C979   1.416       .  A
C978        C983   1.449       .  S
C979       C1310   1.419       .  A
C979        C986   1.450       .  S
C980       C1309   1.419   1_554  A
C980        C981   1.418       .  A
C981        C982   1.405       .  A
C981        C984   1.453       .  S
C982        C985   1.447       .  S
C983       N2310   1.157       .  T
C984        N989   1.158       .  T
C986        N988   1.157       .  T
N990       C2303   1.157       .  T
C991        C996   1.419       .  A
C991       C1310   1.498       .  S
C992        C993   1.398       .  A
C992        H997   1.082   1_554  S
C993       C1002   1.487   1_554  S
C994        C995   1.409       .  A
C994        H998   1.080       .  S
C995        C996   1.411       .  A
C995       C1020   1.512       .  S
C996        H999   1.081       .  S
C1000      C1001   1.413       .  A
C1000      C1005   1.422       .  A
C1000      C1296   1.497       .  S
C1001      C1002   1.388       .  A
C1001      H1006   1.083   1_556  S
C1002      C1003   1.398       .  A
C1003      C1004   1.413       .  A
C1003      H1007   1.075       .  S
C1004      C1005   1.412       .  A
C1004      C1011   1.521       .  S
C1005      H1008   1.081       .  S
C1009      C1010   1.423       .  A
C1009      C1014   1.412       .  A
C1009      C1282   1.500       .  S
C1010      C1011   1.416       .  A
C1010      H1015   1.080       .  S
C1011      C1012   1.407       .  A
C1012      C1013   1.400       .  A
C1012      H1016   1.080       .  S
C1013      C1014   1.395       .  A
C1013      C1022   1.478   1_556  S
C1014      H1017   1.084   1_556  S
C1018      C1019   1.419       .  A
C1018      C1268   1.494       .  S
C1019      C1020   1.412       .  A
C1019      H1024   1.082       .  S
C1020      C1021   1.407       .  A
C1021      H1025   1.076       .  S
C1022      C1023   1.391       .  A
C1023      H1026   1.083   1_554  S
C1027      C1028   1.417       .  A
C1027      C1032   1.409       .  A
C1027      C1251   1.496       .  S
C1028      C1029   1.410       .  A
C1028      H1033   1.083       .  S
C1029      C1030   1.410       .  A
C1029      C1038   1.504       .  S
C1030      C1031   1.406       .  A
C1030      H1034   1.083       .  S
C1031      C1032   1.391       .  A
C1031      C1056   1.483       .  S
C1032      H1035   1.082       .  S
C1036      C1037   1.421       .  A
C1036      C1041   1.413       .  A
C1036      C1240   1.497       .  S
C1037      C1038   1.408       .  A
C1037      H1042   1.082       .  S
C1038      C1039   1.400       .  A
C1039      C1040   1.395       .  A
C1039      H1043   1.077       .  S
C1040      C1041   1.391       .  A
C1040      C1047   1.477       .  S
C1041      H1044   1.083       .  S
C1045      C1046   1.405       .  A
C1045      C1050   1.411       .  A
C1045      C1223   1.480       .  S
C1046      C1047   1.394       .  A
C1046      H1051   1.084       .  S
C1047      C1048   1.402       .  A
C1048      C1049   1.410       .  A
C1048      H1052   1.082       .  S
C1049      C1050   1.410       .  A
C1049      C1058   1.505       .  S
C1050      H1053   1.082       .  S
C1054      C1055   1.415       .  A
C1054      C1059   1.420       .  A
C1054      C1209   1.495       .  S
C1055      C1056   1.392       .  A
C1055      H1060   1.082       .  S
C1056      C1057   1.394       .  A
C1057      C1058   1.402       .  A
C1057      H1061   1.076       .  S
C1058      C1059   1.405       .  A
C1059      H1062   1.082       .  S
C1063      C1064   1.421       .  A
C1063      C1068   1.412       .  A
C1063      C1198   1.490       .  S
C1064      C1065   1.414       .  A
C1064      H1069   1.083       .  S
C1065      C1066   1.407       .  A
C1065      C1085   1.516       .  S
C1066      C1067   1.392       .  A
C1066      H1070   1.076       .  S
C1067      C1068   1.395       .  A
C1067      C1074   1.484       .  S
C1068      H1071   1.083       .  S
C1072      C1073   1.415       .  A
C1072      C1077   1.428       .  A
C1072      C1181   1.510       .  S
C1073      C1074   1.397       .  A
C1073      H1078   1.084       .  S
C1074      C1075   1.401       .  A
C1075      C1076   1.409       .  A
C1075      H1079   1.081       .  S
C1076      C1077   1.417       .  A
C1076      C1092   1.526       .  S
C1077      H1080   1.079       .  S
C1081      C1082   1.423       .  A
C1081      C1086   1.427       .  A
C1081      C1167   1.519       .  S
C1082      C1083   1.396       .  A
C1082      H1087   1.078       .  S
C1083      C1084   1.399       .  A
C1083      C1094   1.498       .  S
C1084      C1085   1.409       .  A
C1084      H1088   1.081       .  S
C1085      C1086   1.416       .  A
C1086      H1089   1.082       .  S
C1090      C1091   1.432       .  A
C1090      C1095   1.423       .  A
C1090      C1153   1.521       .  S
C1091      C1092   1.416       .  A
C1091      H1096   1.080       .  S
C1092      C1093   1.410       .  A
C1093      C1094   1.394       .  A
C1093      H1097   1.074       .  S
C1094      C1095   1.393       .  A
C1095      H1098   1.080       .  S
O1099      C1110   1.299       .  A
O1099     Zr2455   2.472       .  S
O1100      C1111   1.294       .  A
O1100     Zr2454   2.449       .  S
O1101      C1112   1.287       .  A
O1102      C1113   1.288       .  A
O1102     Zr1107   2.419       .  S
O1103      C1113   1.294       .  A
O1103     Zr2457   2.449       .  S
O1104      C1112   1.293       .  A
O1104     Zr2456   2.448       .  S
O1105      C1111   1.290       .  A
O1105     Zr1107   2.430       .  S
Zr1107     O2428   2.332       .  S
Zr1107     O2099   2.338   1_556  S
Zr1107     O2437   2.339       .  S
Zr1107     O2105   2.339   1_556  S
O1108     Zr2427   2.332   1_455  S
O1108     Zr1134   2.349       .  S
O1108     Zr1137   2.348       .  S
O1109     Zr2097   2.338   1_455  S
O1109     Zr1136   2.335       .  S
C1110      C1307   1.489       .  S
C1111      C1293   1.481       .  S
C1112      C1212   1.475       .  S
C1113      C1254   1.492       .  S
H1114      O1115   0.966   1_655  S
O1115     Zr2097   2.338   1_455  S
O1115     Zr1136   2.340       .  S
H1116      O1117   0.966   1_655  S
O1117     Zr2427   2.339   1_455  S
O1117     Zr1137   2.336       .  S
O1118      C1141   1.294   1_554  A
O1118     Zr1134   2.447   1_554  S
O1119      C1142   1.294       .  A
O1119     Zr1135   2.448       .  S
O1120      C1143   1.295       .  A
O1120     Zr1136   2.449       .  S
O1121      C1144   1.294       .  A
O1121     Zr1137   2.449       .  S
O1122      C1145   1.297       .  A
O1123      C1146   1.291       .  A
O1124      C1147   1.292       .  A
O1125      C1148   1.289       .  A
O1125     Zr1138   2.430   1_556  S
O1126      C1147   1.288       .  A
O1126     Zr1136   2.423       .  S
O1127      C1148   1.292       .  A
O1127     Zr1137   2.437       .  S
O1128      C1143   1.295       .  A
O1129      C1146   1.299       .  A
O1129     Zr1135   2.470       .  S
O1130      C1145   1.293       .  A
O1131      C1144   1.295       .  A
O1131     Zr1134   2.455       .  S
O1132      C1141   1.290       .  A
O1132     Zr1138   2.434   1_556  S
O1133      C1142   1.290       .  A
Zr1134     O2420   2.448   1_455  S
Zr1134     O1152   2.340       .  S
Zr1135     O2419   2.472   1_455  S
Zr1136     O2424   2.448   1_455  S
Zr1136     O1140   2.342       .  S
Zr1136     O1150   2.347       .  S
Zr1137     O2423   2.449   1_455  S
Zr1137     O1139   2.341       .  S
Zr1137     O1152   2.344       .  S
Zr1138     O1139   2.339   1_554  S
Zr1138     O1152   2.334   1_554  S
C1141      C1279   1.509       .  S
C1142      C1265   1.479       .  S
C1143      C1170   1.509       .  S
C1144      C1195   1.486       .  S
C1145      C1184   1.514       .  S
C1146      C1156   1.501       .  S
C1147      C1226   1.473       .  S
C1148      C1237   1.511       .  S
H1149      O1150   0.966       .  S
H1151      O1152   0.965       .  S
C1153      C1154   1.426       .  A
C1153      C1158   1.424       .  A
C1154      C1155   1.416       .  A
C1154      C1159   1.451       .  S
C1155      C1156   1.412       .  A
C1155      C1162   1.450       .  S
C1156      C1157   1.415       .  A
C1157      C1158   1.413       .  A
C1157      C1160   1.450       .  S
C1158      C1161   1.451   1_455  S
C1159      N1166   1.158       .  T
C1161      N1163   1.158       .  T
C1162      N1164   1.157       .  T
C1167      C1168   1.424       .  A
C1167      C1172   1.420       .  A
C1168      C1169   1.417       .  A
C1168      C1173   1.452       .  S
C1169      C1170   1.420       .  A
C1169      C1176   1.452       .  S
C1170      C1171   1.418       .  A
C1171      C1172   1.412       .  A
C1171      C1174   1.451       .  S
C1172      C1175   1.451       .  S
C1173      N1180   1.158       .  T
C1174      N1179   1.158       .  T
C1175      N1177   1.158   1_455  T
C1176      N1178   1.157       .  T
C1181      C1182   1.421       .  A
C1181      C1186   1.416       .  A
C1182      C1183   1.410       .  A
C1182      C1187   1.454       .  S
C1183      C1184   1.421       .  A
C1183      C1190   1.454       .  S
C1184      C1185   1.422       .  A
C1185      C1186   1.420       .  A
C1185      C1188   1.448       .  S
C1186      C1189   1.451       .  S
C1187      N1194   1.158   1_455  T
C1189      N1191   1.158       .  T
C1190      N1192   1.158       .  T
C1195      C1196   1.412       .  A
C1195      C1200   1.411       .  A
C1196      C1197   1.413       .  A
C1196      C1201   1.451       .  S
C1197      C1198   1.414       .  A
C1197      C1204   1.450       .  S
C1198      C1199   1.411       .  A
C1199      C1200   1.413       .  A
C1199      C2522   1.451   1_455  S
C1200      C2523   1.446   1_455  S
C1201      N1208   1.157       .  T
C1202      C2519   1.451       .  S
C1202      N1207   1.157       .  T
C1203      C2520   1.446       .  S
C1203      N1205   1.155       .  T
C1204      N1206   1.157       .  T
C1209      C1210   1.419       .  A
C1209      C1214   1.421       .  A
C1210      C1211   1.400       .  A
C1210      C1215   1.453       .  S
C1211      C1212   1.403       .  A
C1211      C1218   1.444       .  S
C1212      C1213   1.409       .  A
C1213      C1214   1.413       .  A
C1215      N1222   1.158       .  T
C1216      N1221   1.158       .  T
C1217      N1219   1.157       .  T
C1218      N1220   1.154       .  T
C1223      C1224   1.411       .  A
C1223      C1228   1.415       .  A
C1224      C1225   1.404       .  A
C1224      C1229   1.452       .  S
C1225      C1226   1.409       .  A
C1225      C1232   1.451       .  S
C1226      C1227   1.411       .  A
C1227      C1228   1.410       .  A
C1227      C1230   1.451       .  S
C1228      C1231   1.451       .  S
C1229      N1236   1.157       .  T
C1232      N1234   1.157       .  T
C1237      C1238   1.428       .  A
C1237      C1242   1.422       .  A
C1238      C1239   1.415       .  A
C1238      C1243   1.452       .  S
C1239      C1240   1.413       .  A
C1239      C1246   1.452       .  S
C1240      C1241   1.416       .  A
C1241      C1242   1.405       .  A
C1241      C1244   1.454       .  S
C1242      C1245   1.454       .  S
C1243      N1250   1.158       .  T
C1244      N1249   1.158       .  T
C1245      N1247   1.158       .  T
C1246      N1248   1.158       .  T
C1251      C1252   1.413       .  A
C1251      C1256   1.418       .  A
C1252      C1253   1.407       .  A
C1252      C1257   1.454       .  S
C1253      C1254   1.420       .  A
C1253      C1260   1.450       .  S
C1254      C1255   1.415       .  A
C1255      C1256   1.411       .  A
C1255      C1258   1.451       .  S
C1256      C1259   1.452       .  S
C1258      N2583   1.157       .  T
C1259      N1261   1.158       .  T
N1263      C2578   1.157       .  T
C1265      C1270   1.409       .  A
C1266      C1267   1.412       .  A
C1266      C1271   1.450       .  S
C1267      C1274   1.451       .  S
C1268      C1269   1.416       .  A
C1269      C1270   1.408       .  A
C1269      C1272   1.452       .  S
C1270      C1273   1.448       .  S
C1271      N1278   1.157       .  T
C1272      N1277   1.157       .  T
C1273      N1275   1.155       .  T
C1274      N1276   1.157       .  T
C1279      C1284   1.422       .  A
C1280      C1281   1.417       .  A
C1280      C1285   1.452       .  S
C1281      C1288   1.452       .  S
C1282      C1283   1.417       .  A
C1283      C1284   1.409       .  A
C1283      C1286   1.455       .  S
C1284      C1287   1.454       .  S
C1285      N1292   1.158       .  T
C1286      N1291   1.157       .  T
C1287      N1289   1.158       .  T
C1288      N1290   1.158       .  T
C1293      C1298   1.410       .  A
C1294      C1295   1.410       .  A
C1294      C1299   1.450       .  S
C1295      C1302   1.452       .  S
C1296      C1297   1.417       .  A
C1297      C1298   1.409       .  A
C1297      C1300   1.451       .  S
C1298      C1301   1.450       .  S
C1299      N1306   1.157       .  T
C1300      N1305   1.157       .  T
C1301      N1303   1.157       .  T
C1302      N1304   1.157       .  T
C1307      C1312   1.410       .  A
C1308      C1309   1.416       .  A
C1308      C1313   1.449       .  S
C1309      C1316   1.450       .  S
C1310      C1311   1.418       .  A
C1311      C1312   1.404       .  A
C1311      C1314   1.453       .  S
C1312      C1315   1.447       .  S
C1313      N2640   1.157       .  T
C1314      N1319   1.158       .  T
C1316      N1318   1.157       .  T
N1320      C2633   1.157       .  T
C1321      C1652   1.414       .  A
C1321      C1326   1.419       .  A
C1321      C1640   1.498       .  S
C1322      C1651   1.414       .  A
C1322      C1323   1.398       .  A
C1322      H1327   1.082       .  S
C1323      C1654   1.400       .  A
C1323      C1332   1.487       .  S
C1324      C1653   1.400       .  A
C1324      C1325   1.409       .  A
C1324      H1328   1.080       .  S
C1325      C1326   1.411       .  A
C1325      C1350   1.512       .  S
C1326      H1329   1.081       .  S
C1330      C1331   1.413       .  A
C1330      C1335   1.422       .  A
C1330      C1626   1.497       .  S
C1331      C1332   1.388       .  A
C1331      H1336   1.083       .  S
C1332      C1333   1.398       .  A
C1333      C1334   1.413       .  A
C1333      H1337   1.075       .  S
C1334      C1335   1.412       .  A
C1334      C1341   1.521       .  S
C1335      H1338   1.081       .  S
C1339      C1340   1.423       .  A
C1339      C1344   1.412       .  A
C1339      C1612   1.500       .  S
C1340      C1341   1.416       .  A
C1340      H1345   1.080       .  S
C1341      C1342   1.407       .  A
C1342      C1343   1.400       .  A
C1342      H1346   1.080       .  S
C1343      C1344   1.395       .  A
C1343      C1352   1.478       .  S
C1344      H1347   1.084       .  S
C1348      C1349   1.419       .  A
C1348      C1683   1.411       .  A
C1348      C1598   1.494       .  S
C1349      C1350   1.412       .  A
C1349      H1354   1.082       .  S
C1350      C1351   1.407       .  A
C1351      C1682   1.393       .  A
C1351      H1355   1.076       .  S
C1352      C1681   1.393       .  A
C1352      C1353   1.391       .  A
C1353      C1678   1.411       .  A
C1353      H1356   1.083       .  S
C1357      C1358   1.417       .  A
C1357      C1362   1.409       .  A
C1357      C1581   1.496       .  S
C1358      C1359   1.410       .  A
C1358      H1363   1.083       .  S
C1359      C1360   1.410   1_545  A
C1359      C1368   1.504       .  S
C1360      C1361   1.406   1_565  A
C1360      H1364   1.083       .  S
C1361      C1362   1.391       .  A
C1361      C1386   1.483       .  S
C1362      H1365   1.082       .  S
C1366      C1367   1.421       .  A
C1366      C1371   1.413       .  A
C1366      C1570   1.497       .  S
C1367      C1368   1.407       .  A
C1367      H1372   1.082       .  S
C1368      C1369   1.400       .  A
C1369      C1370   1.395       .  A
C1369      H1373   1.077       .  S
C1370      C1371   1.391       .  A
C1370      C1377   1.477       .  S
C1371      H1374   1.083       .  S
C1375      C1376   1.405       .  A
C1375      C1380   1.411       .  A
C1375      C1553   1.480       .  S
C1376      C1377   1.394       .  A
C1376      H1381   1.084       .  S
C1377      C1378   1.402       .  A
C1378      C1379   1.410       .  A
C1378      H1382   1.082       .  S
C1379      C1380   1.410       .  A
C1379      C1388   1.505       .  S
C1380      H1383   1.082       .  S
C1384      C1385   1.415       .  A
C1384      C1389   1.420       .  A
C1384      C1539   1.495       .  S
C1385      C1386   1.392       .  A
C1385      H1390   1.082       .  S
C1386      C1387   1.394       .  A
C1387      C1388   1.402       .  A
C1387      H1391   1.076       .  S
C1388      C1389   1.404       .  A
C1389      H1392   1.082       .  S
C1393      C1394   1.421       .  A
C1393      C1398   1.412       .  A
C1393      C1528   1.490       .  S
C1394      C1395   1.414       .  A
C1394      H1399   1.083       .  S
C1395      C1396   1.407       .  A
C1395      C1415   1.516       .  S
C1396      C1397   1.392       .  A
C1396      H1400   1.076       .  S
C1397      C1398   1.395       .  A
C1397      C1404   1.484       .  S
C1398      H1401   1.083       .  S
C1402      C1403   1.415       .  A
C1402      C1407   1.428       .  A
C1402      C1511   1.510       .  S
C1403      C1404   1.397       .  A
C1403      H1408   1.084       .  S
C1404      C1405   1.401       .  A
C1405      C1406   1.409       .  A
C1405      H1409   1.081       .  S
C1406      C1407   1.417       .  A
C1406      C1422   1.526       .  S
C1407      H1410   1.079       .  S
C1411      C1412   1.423       .  A
C1411      C1416   1.427       .  A
C1411      C1497   1.519       .  S
C1412      C1413   1.396       .  A
C1412      H1417   1.078       .  S
C1413      C1414   1.399       .  A
C1413      C1424   1.498       .  S
C1414      C1415   1.409       .  A
C1414      H1418   1.081       .  S
C1415      C1416   1.416       .  A
C1416      H1419   1.082       .  S
C1420      C1421   1.432       .  A
C1420      C1425   1.423       .  A
C1420      C1483   1.521       .  S
C1421      C1422   1.416       .  A
C1421      H1426   1.080       .  S
C1422      C1423   1.410       .  A
C1423      C1424   1.394       .  A
C1423      H1427   1.074       .  S
C1424      C1425   1.393       .  A
C1425      H1428   1.080       .  S
O1429      C1440   1.299       .  A
O1430      C1441   1.294       .  A
O1431      C1442   1.287       .  A
O1431     Zr1767   2.416   1_554  S
O1432      C1443   1.288       .  A
O1432     Zr1437   2.419       .  S
O1433      C1443   1.294       .  A
O1434      C1442   1.293       .  A
O1435      C1441   1.290       .  A
O1435     Zr1437   2.430       .  S
O1436      C1770   1.287       .  A
O1436     Zr2097   2.414       .  S
Zr1437     O1761   2.417       .  S
Zr1437     O2096   2.414   1_545  S
O1438     Zr1464   2.349       .  S
O1438     Zr1467   2.348       .  S
O1439     Zr2125   2.341   1_545  S
O1439     Zr1466   2.335       .  S
C1440      C1637   1.489       .  S
C1440      O1766   1.287       .  A
C1441      C1623   1.481       .  S
C1442      C1542   1.475       .  S
C1443      C1584   1.492       .  S
H1444      O1445   0.966       .  S
O1445     Zr1794   2.347   1_554  S
O1445     Zr1466   2.340       .  S
H1446      O1447   0.966   1_565  S
O1447     Zr2455   2.346   1_545  S
O1447     Zr1467   2.336       .  S
O1448      C1471   1.294       .  A
O1448     Zr1464   2.449       .  S
O1449      C1472   1.294       .  A
O1449     Zr1465   2.448       .  S
O1450      C1473   1.295       .  A
O1450     Zr1466   2.449       .  S
O1451      C1474   1.294       .  A
O1451     Zr1467   2.449       .  S
O1452      C1475   1.296       .  A
O1452     Zr2127   2.461       .  S
O1453      C1476   1.291       .  A
O1453     Zr2126   2.433       .  S
O1454      C1477   1.292       .  A
O1454     Zr1798   2.436       .  S
O1455      C1478   1.289       .  A
O1455     Zr1468   2.430       .  S
O1456      C1477   1.288       .  A
O1456     Zr1466   2.423       .  S
O1457      C1478   1.291       .  A
O1457     Zr1467   2.436       .  S
O1458      C1473   1.295       .  A
O1458     Zr1794   2.451   1_554  S
O1459      C1476   1.299       .  A
O1459     Zr1465   2.470       .  S
O1460      C1475   1.293       .  A
O1460     Zr1795   2.441       .  S
O1461      C1474   1.295       .  A
O1461     Zr1464   2.455       .  S
O1462      C1471   1.290       .  A
O1462     Zr1468   2.433       .  S
O1463      C1472   1.290       .  A
O1463     Zr2458   2.429       .  S
Zr1464     O1788   2.451       .  S
Zr1464     O1775   2.347       .  S
Zr1464     O1800   2.337       .  S
Zr1464     O1482   2.340       .  S
Zr1465     O1790   2.441   1_554  S
Zr1465     O2099   2.341       .  S
Zr1465     O2437   2.346   1_554  S
Zr1465     O2459   2.347   1_554  S
Zr1465     O2140   2.345       .  S
Zr1466     O2113   2.433   1_545  S
Zr1466     O1470   2.342       .  S
Zr1466     O1480   2.347       .  S
Zr1467     O2112   2.461   1_545  S
Zr1467     O1469   2.342       .  S
Zr1467     O1482   2.344       .  S
Zr1468     O1784   2.436       .  S
Zr1468     O2453   2.429   1_545  S
Zr1468     O1469   2.340       .  S
Zr1468     O1800   2.334       .  S
Zr1468     O1482   2.334       .  S
Zr1468     O1810   2.342       .  S
O1469     Zr2455   2.347   1_545  S
O1470     Zr1794   2.337   1_554  S
O1470     Zr1798   2.334       .  S
C1471      C1609   1.509       .  S
C1472      C1595   1.479       .  S
C1473      C1500   1.509       .  S
C1474      C1525   1.486       .  S
C1475      C1514   1.514       .  S
C1476      C1486   1.501       .  S
C1477      C1556   1.473       .  S
C1478      C1567   1.510       .  S
H1479      O1480   0.966       .  S
O1480     Zr2125   2.345   1_545  S
O1480     Zr1798   2.342       .  S
H1481      O1482   0.965       .  S
C1483      C1484   1.426       .  A
C1483      C1488   1.424       .  A
C1484      C1485   1.416       .  A
C1484      C1489   1.451       .  S
C1485      C1486   1.412       .  A
C1485      C1492   1.450       .  S
C1486      C1487   1.415       .  A
C1487      C1488   1.413       .  A
C1487      C1490   1.450       .  S
C1488      C1491   1.451       .  S
C1489      N1496   1.158       .  T
C1490      N2155   1.157       .  T
C1491      N1493   1.158       .  T
C1492      N1494   1.157       .  T
N1495      C2150   1.157       .  T
C1497      C1498   1.424       .  A
C1497      C1502   1.420       .  A
C1498      C1499   1.417       .  A
C1498      C1503   1.452       .  S
C1499      C1500   1.420       .  A
C1499      C1506   1.452       .  S
C1500      C1501   1.418       .  A
C1501      C1502   1.412       .  A
C1501      C1504   1.451       .  S
C1502      C1505   1.451       .  S
C1503      N1510   1.158       .  T
C1504      N1509   1.158       .  T
C1505      N1507   1.158       .  T
C1506      N1508   1.157       .  T
C1511      C1512   1.421       .  A
C1511      C1516   1.416       .  A
C1512      C1513   1.410       .  A
C1512      C1517   1.454       .  S
C1513      C1514   1.421       .  A
C1513      C1520   1.454       .  S
C1514      C1515   1.422       .  A
C1515      C1516   1.420       .  A
C1515      C1518   1.448       .  S
C1516      C1519   1.451       .  S
C1517      N1524   1.158       .  T
C1518      N2183   1.156       .  T
C1519      N1521   1.158       .  T
C1520      N1522   1.158       .  T
N1523      C2178   1.156       .  T
C1525      C1526   1.412       .  A
C1525      C1530   1.411       .  A
C1526      C1527   1.413       .  A
C1526      C1531   1.451       .  S
C1527      C1528   1.414       .  A
C1527      C1534   1.450       .  S
C1528      C1529   1.411       .  A
C1529      C1530   1.413       .  A
C1531      N1538   1.157       .  T
C1532      N1537   1.157       .  T
C1533      N1535   1.155       .  T
C1534      N1536   1.157       .  T
C1539      C1540   1.419       .  A
C1539      C1544   1.421       .  A
C1540      C1541   1.400       .  A
C1540      C1545   1.453       .  S
C1541      C1542   1.403       .  A
C1541      C1548   1.444       .  S
C1542      C1543   1.409       .  A
C1543      C1544   1.413       .  A
C1543      C2206   1.451   1_545  S
C1544      C2207   1.450   1_545  S
C1545      N1552   1.158       .  T
C1546      C2203   1.451       .  S
C1546      N1551   1.158       .  T
C1547      C2204   1.450       .  S
C1547      N1549   1.157       .  T
C1548      N1550   1.154       .  T
C1553      C1554   1.411       .  A
C1553      C1558   1.415       .  A
C1554      C1555   1.404       .  A
C1554      C1559   1.452       .  S
C1555      C1556   1.409       .  A
C1555      C1562   1.451       .  S
C1556      C1557   1.411       .  A
C1557      C1558   1.410       .  A
C1557      C1560   1.451       .  S
C1558      C1561   1.451       .  S
C1559      N1566   1.157       .  T
C1560      N2225   1.157   1_545  T
C1561      N2223   1.157   1_545  T
C1562      N1564   1.157       .  T
N1563      C2221   1.157       .  T
N1565      C2220   1.157       .  T
C1567      C1568   1.428       .  A
C1567      C1572   1.422       .  A
C1568      C1569   1.415       .  A
C1568      C1573   1.452       .  S
C1569      C1570   1.413       .  A
C1569      C1576   1.452       .  S
C1570      C1571   1.416       .  A
C1571      C1572   1.404       .  A
C1571      C1574   1.455       .  S
C1572      C1575   1.454       .  S
C1573      N1580   1.158       .  T
C1574      N1579   1.158       .  T
C1575      N1577   1.158       .  T
C1576      N1578   1.158       .  T
C1581      C1582   1.413       .  A
C1581      C1586   1.418       .  A
C1582      C1583   1.407       .  A
C1582      C1587   1.454   1_545  S
C1583      C1584   1.420       .  A
C1583      C1590   1.450       .  S
C1584      C1585   1.415       .  A
C1585      C1586   1.411       .  A
C1585      C1588   1.451       .  S
C1586      C1589   1.452       .  S
C1587      N2254   1.157       .  T
C1589      N1591   1.158       .  T
C1590      N2252   1.156   1_545  T
N1592      C2250   1.156       .  T
N1594      C2247   1.157       .  T
C1595      C1926   1.409   1_554  A
C1595      C1600   1.409       .  A
C1596      C1925   1.409       .  A
C1596      C1597   1.411       .  A
C1596      C1601   1.451       .  S
C1597      C1928   1.419       .  A
C1597      C1604   1.451       .  S
C1598      C1927   1.419   1_554  A
C1598      C1599   1.416       .  A
C1599      C1600   1.408       .  A
C1599      C1602   1.452       .  S
C1600      C1603   1.448       .  S
C1601      N1608   1.157       .  T
C1602      N1607   1.157       .  T
C1603      N1605   1.155       .  T
C1604      N1606   1.157       .  T
C1609      C1940   1.427       .  A
C1609      C1614   1.422       .  A
C1610      C1939   1.427   1_554  A
C1610      C1611   1.417       .  A
C1610      C1615   1.452       .  S
C1611      C1942   1.412   1_554  A
C1611      C1618   1.452       .  S
C1612      C1941   1.412       .  A
C1612      C1613   1.417       .  A
C1613      C1614   1.409       .  A
C1613      C1616   1.455       .  S
C1614      C1617   1.454       .  S
C1615      N1622   1.158       .  T
C1616      N1621   1.157       .  T
C1617      N1619   1.158       .  T
C1618      N1620   1.158       .  T
C1623      C1954   1.410       .  A
C1623      C1628   1.410       .  A
C1624      C1953   1.410   1_554  A
C1624      C1625   1.409       .  A
C1624      C1629   1.450       .  S
C1625      C1956   1.419   1_554  A
C1625      C1632   1.453       .  S
C1626      C1955   1.419       .  A
C1626      C1627   1.418       .  A
C1627      C1628   1.409       .  A
C1627      C1630   1.451       .  S
C1628      C1631   1.450       .  S
C1629      N1636   1.157       .  T
C1630      N1635   1.157       .  T
C1631      N1633   1.157       .  T
C1632      N1634   1.157       .  T
C1637      C1968   1.410       .  A
C1637      C1642   1.410   1_556  A
C1638      C1967   1.410       .  A
C1638      C1639   1.416       .  A
C1638      C1643   1.449       .  S
C1639      C1970   1.419       .  A
C1639      C1646   1.450       .  S
C1640      C1969   1.419   1_554  A
C1640      C1641   1.418       .  A
C1641      C1642   1.404       .  A
C1641      C1644   1.453       .  S
C1642      C1645   1.447       .  S
C1644      N1649   1.158       .  T
C1645      N2307   1.156       .  T
C1646      N1648   1.157       .  T
N1647      C2305   1.156       .  T
C1651      C1656   1.419       .  A
C1651      C1970   1.498       .  S
C1652      C1653   1.398       .  A
C1652      H1657   1.082   1_554  S
C1653      C1662   1.487   1_554  S
C1654      C1655   1.409       .  A
C1654      H1658   1.080       .  S
C1655      C1656   1.411       .  A
C1655      C1680   1.512       .  S
C1656      H1659   1.081       .  S
C1660      C1661   1.413       .  A
C1660      C1665   1.422       .  A
C1660      C1956   1.497       .  S
C1661      C1662   1.388       .  A
C1661      H1666   1.083   1_556  S
C1662      C1663   1.398       .  A
C1663      C1664   1.413       .  A
C1663      H1667   1.075       .  S
C1664      C1665   1.412       .  A
C1664      C1671   1.521       .  S
C1665      H1668   1.081       .  S
C1669      C1670   1.423       .  A
C1669      C1674   1.412       .  A
C1669      C1942   1.500       .  S
C1670      C1671   1.416       .  A
C1670      H1675   1.080       .  S
C1671      C1672   1.407       .  A
C1672      C1673   1.400       .  A
C1672      H1676   1.080       .  S
C1673      C1674   1.395       .  A
C1673      C1682   1.478   1_556  S
C1674      H1677   1.084   1_556  S
C1678      C1679   1.419       .  A
C1678      C1928   1.494       .  S
C1679      C1680   1.412       .  A
C1679      H1684   1.082       .  S
C1680      C1681   1.407       .  A
C1681      H1685   1.076       .  S
C1682      C1683   1.391       .  A
C1683      H1686   1.083   1_554  S
C1687      C1688   1.417       .  A
C1687      C1692   1.409       .  A
C1687      C1911   1.496       .  S
C1688      C1689   1.410       .  A
C1688      H1693   1.083       .  S
C1689      C1690   1.410   1_545  A
C1689      C1698   1.504       .  S
C1690      C1691   1.406   1_565  A
C1690      H1694   1.083       .  S
C1691      C1692   1.391       .  A
C1691      C1716   1.483       .  S
C1692      H1695   1.082       .  S
C1696      C1697   1.421       .  A
C1696      C1701   1.413       .  A
C1696      C1900   1.497       .  S
C1697      C1698   1.407       .  A
C1697      H1702   1.082       .  S
C1698      C1699   1.400       .  A
C1699      C1700   1.395       .  A
C1699      H1703   1.077       .  S
C1700      C1701   1.391       .  A
C1700      C1707   1.477       .  S
C1701      H1704   1.083       .  S
C1705      C1706   1.405       .  A
C1705      C1710   1.411       .  A
C1705      C1883   1.480       .  S
C1706      C1707   1.394       .  A
C1706      H1711   1.084       .  S
C1707      C1708   1.402       .  A
C1708      C1709   1.410       .  A
C1708      H1712   1.082       .  S
C1709      C1710   1.410       .  A
C1709      C1718   1.505       .  S
C1710      H1713   1.082       .  S
C1714      C1715   1.415       .  A
C1714      C1719   1.420       .  A
C1714      C1869   1.495       .  S
C1715      C1716   1.392       .  A
C1715      H1720   1.082       .  S
C1716      C1717   1.394       .  A
C1717      C1718   1.402       .  A
C1717      H1721   1.076       .  S
C1718      C1719   1.404       .  A
C1719      H1722   1.082       .  S
C1723      C1724   1.421       .  A
C1723      C1728   1.412       .  A
C1723      C1858   1.490       .  S
C1724      C1725   1.414       .  A
C1724      H1729   1.083       .  S
C1725      C1726   1.407       .  A
C1725      C1745   1.516       .  S
C1726      C1727   1.392       .  A
C1726      H1730   1.076       .  S
C1727      C1728   1.395       .  A
C1727      C1734   1.484       .  S
C1728      H1731   1.083       .  S
C1732      C1733   1.415       .  A
C1732      C1737   1.428       .  A
C1732      C1841   1.510       .  S
C1733      C1734   1.397       .  A
C1733      H1738   1.084       .  S
C1734      C1735   1.401       .  A
C1735      C1736   1.409       .  A
C1735      H1739   1.081       .  S
C1736      C1737   1.417       .  A
C1736      C1752   1.526       .  S
C1737      H1740   1.079       .  S
C1741      C1742   1.423       .  A
C1741      C1746   1.427       .  A
C1741      C1827   1.519       .  S
C1742      C1743   1.396       .  A
C1742      H1747   1.078       .  S
C1743      C1744   1.399       .  A
C1743      C1754   1.498       .  S
C1744      C1745   1.409       .  A
C1744      H1748   1.081       .  S
C1745      C1746   1.416       .  A
C1746      H1749   1.082       .  S
C1750      C1751   1.432       .  A
C1750      C1755   1.423       .  A
C1750      C1813   1.521       .  S
C1751      C1752   1.416       .  A
C1751      H1756   1.080       .  S
C1752      C1753   1.410       .  A
C1753      C1754   1.394       .  A
C1753      H1757   1.074       .  S
C1754      C1755   1.393       .  A
C1755      H1758   1.080       .  S
O1759      C1770   1.299       .  A
O1760      C1771   1.294       .  A
O1761      C1772   1.287       .  A
O1762      C1773   1.288       .  A
O1762     Zr1767   2.419       .  S
O1763      C1773   1.294       .  A
O1764      C1772   1.293       .  A
O1765      C1771   1.290       .  A
O1765     Zr1767   2.430       .  S
O1766     Zr2427   2.414       .  S
Zr1767     O2426   2.414   1_545  S
O1768     Zr1794   2.349       .  S
O1768     Zr1797   2.348       .  S
O1769     Zr2455   2.341   1_545  S
O1769     Zr1796   2.335       .  S
C1770      C1967   1.489       .  S
C1771      C1953   1.481       .  S
C1772      C1872   1.475       .  S
C1773      C1914   1.492       .  S
H1774      O1775   0.966       .  S
O1775     Zr1796   2.340       .  S
H1776      O1777   0.966   1_565  S
O1777     Zr2125   2.346   1_546  S
O1777     Zr1797   2.336       .  S
O1778      C1801   1.294   1_554  A
O1778     Zr1794   2.449   1_554  S
O1779      C1802   1.294       .  A
O1779     Zr1795   2.448       .  S
O1780      C1803   1.295       .  A
O1780     Zr1796   2.449       .  S
O1781      C1804   1.294       .  A
O1781     Zr1797   2.449       .  S
O1782      C1805   1.296       .  A
O1782     Zr2457   2.461       .  S
O1783      C1806   1.291       .  A
O1783     Zr2456   2.433       .  S
O1784      C1807   1.292       .  A
O1785      C1808   1.289       .  A
O1785     Zr1798   2.430   1_556  S
O1786      C1807   1.288       .  A
O1786     Zr1796   2.423       .  S
O1787      C1808   1.291       .  A
O1787     Zr1797   2.436       .  S
O1788      C1803   1.295       .  A
O1789      C1806   1.299       .  A
O1789     Zr1795   2.470       .  S
O1790      C1805   1.293       .  A
O1791      C1804   1.295       .  A
O1791     Zr1794   2.455       .  S
O1792      C1801   1.290       .  A
O1792     Zr1798   2.433   1_556  S
O1793      C1802   1.290       .  A
O1793     Zr2128   2.429       .  S
Zr1794     O1812   2.340       .  S
Zr1795     O2429   2.341       .  S
Zr1795     O2107   2.346       .  S
Zr1795     O2129   2.347       .  S
Zr1795     O2470   2.345       .  S
Zr1796     O2443   2.433   1_545  S
Zr1796     O1800   2.342       .  S
Zr1796     O1810   2.347       .  S
Zr1797     O2442   2.461   1_545  S
Zr1797     O1799   2.342       .  S
Zr1797     O1812   2.344       .  S
Zr1798     O2123   2.429   1_545  S
Zr1798     O1799   2.340   1_554  S
Zr1798     O1812   2.334   1_554  S
O1799     Zr2125   2.347   1_546  S
C1801      C1939   1.509       .  S
C1802      C1925   1.479       .  S
C1803      C1830   1.509       .  S
C1804      C1855   1.486       .  S
C1805      C1844   1.514       .  S
C1806      C1816   1.501       .  S
C1807      C1886   1.473       .  S
C1808      C1897   1.510       .  S
H1809      O1810   0.966       .  S
O1810     Zr2455   2.345   1_545  S
H1811      O1812   0.965       .  S
C1813      C1814   1.426       .  A
C1813      C1818   1.424       .  A
C1814      C1815   1.416       .  A
C1814      C1819   1.451       .  S
C1815      C1816   1.412       .  A
C1815      C1822   1.450       .  S
C1816      C1817   1.415       .  A
C1817      C1818   1.413       .  A
C1817      C1820   1.450       .  S
C1818      C1821   1.451       .  S
C1819      N1826   1.158       .  T
C1820      N2485   1.157       .  T
C1821      N1823   1.158       .  T
C1822      N1824   1.157       .  T
N1825      C2480   1.157       .  T
C1827      C1828   1.424       .  A
C1827      C1832   1.420       .  A
C1828      C1829   1.417       .  A
C1828      C1833   1.452       .  S
C1829      C1830   1.420       .  A
C1829      C1836   1.452       .  S
C1830      C1831   1.418       .  A
C1831      C1832   1.412       .  A
C1831      C1834   1.451       .  S
C1832      C1835   1.451       .  S
C1833      N1840   1.158       .  T
C1834      N1839   1.158       .  T
C1835      N1837   1.158       .  T
C1836      N1838   1.157       .  T
C1841      C1842   1.421       .  A
C1841      C1846   1.416       .  A
C1842      C1843   1.410       .  A
C1842      C1847   1.454       .  S
C1843      C1844   1.421       .  A
C1843      C1850   1.454       .  S
C1844      C1845   1.422       .  A
C1845      C1846   1.420       .  A
C1845      C1848   1.448       .  S
C1846      C1849   1.451       .  S
C1847      N1854   1.158       .  T
C1848      N2513   1.156       .  T
C1849      N1851   1.158       .  T
C1850      N1852   1.158       .  T
N1853      C2508   1.156       .  T
C1855      C1856   1.412       .  A
C1855      C1860   1.411       .  A
C1856      C1857   1.413       .  A
C1856      C1861   1.451       .  S
C1857      C1858   1.414       .  A
C1857      C1864   1.450       .  S
C1858      C1859   1.411       .  A
C1859      C1860   1.413       .  A
C1861      N1868   1.157       .  T
C1862      N1867   1.157       .  T
C1863      N1865   1.155       .  T
C1864      N1866   1.157       .  T
C1869      C1870   1.419       .  A
C1869      C1874   1.421       .  A
C1870      C1871   1.400       .  A
C1870      C1875   1.453       .  S
C1871      C1872   1.403       .  A
C1871      C1878   1.444       .  S
C1872      C1873   1.409       .  A
C1873      C1874   1.413       .  A
C1873      C2536   1.451   1_545  S
C1874      C2537   1.450   1_545  S
C1875      N1882   1.158       .  T
C1876      C2533   1.451       .  S
C1876      N1881   1.158       .  T
C1877      C2534   1.450       .  S
C1877      N1879   1.157       .  T
C1878      N1880   1.154       .  T
C1883      C1884   1.411       .  A
C1883      C1888   1.415       .  A
C1884      C1885   1.404       .  A
C1884      C1889   1.452       .  S
C1885      C1886   1.409       .  A
C1885      C1892   1.451       .  S
C1886      C1887   1.411       .  A
C1887      C1888   1.410       .  A
C1887      C1890   1.451       .  S
C1888      C1891   1.451       .  S
C1889      N1896   1.157       .  T
C1890      N2555   1.157   1_545  T
C1891      N2553   1.157   1_545  T
C1892      N1894   1.157       .  T
N1893      C2551   1.157       .  T
N1895      C2550   1.157       .  T
C1897      C1898   1.428       .  A
C1897      C1902   1.422       .  A
C1898      C1899   1.415       .  A
C1898      C1903   1.452       .  S
C1899      C1900   1.413       .  A
C1899      C1906   1.452       .  S
C1900      C1901   1.416       .  A
C1901      C1902   1.404       .  A
C1901      C1904   1.455       .  S
C1902      C1905   1.454       .  S
C1903      N1910   1.158       .  T
C1904      N1909   1.158       .  T
C1905      N1907   1.158       .  T
C1906      N1908   1.158       .  T
C1911      C1912   1.413       .  A
C1911      C1916   1.418       .  A
C1912      C1913   1.407       .  A
C1912      C1917   1.454   1_545  S
C1913      C1914   1.420       .  A
C1913      C1920   1.450       .  S
C1914      C1915   1.415       .  A
C1915      C1916   1.411       .  A
C1915      C1918   1.451       .  S
C1916      C1919   1.452       .  S
C1917      N2584   1.157       .  T
C1919      N1921   1.158       .  T
C1920      N2582   1.156   1_545  T
N1922      C2580   1.156       .  T
N1924      C2577   1.157       .  T
C1925      C1930   1.409       .  A
C1926      C1927   1.411       .  A
C1926      C1931   1.451       .  S
C1927      C1934   1.451       .  S
C1928      C1929   1.416       .  A
C1929      C1930   1.408       .  A
C1929      C1932   1.452       .  S
C1930      C1933   1.448       .  S
C1931      N1938   1.157       .  T
C1932      N1937   1.157       .  T
C1933      N1935   1.155       .  T
C1934      N1936   1.157       .  T
C1939      C1944   1.422       .  A
C1940      C1941   1.417       .  A
C1940      C1945   1.452       .  S
C1941      C1948   1.452       .  S
C1942      C1943   1.417       .  A
C1943      C1944   1.409       .  A
C1943      C1946   1.455       .  S
C1944      C1947   1.454       .  S
C1945      N1952   1.158       .  T
C1946      N1951   1.157       .  T
C1947      N1949   1.158       .  T
C1948      N1950   1.158       .  T
C1953      C1958   1.410       .  A
C1954      C1955   1.410       .  A
C1954      C1959   1.450       .  S
C1955      C1962   1.452       .  S
C1956      C1957   1.418       .  A
C1957      C1958   1.409       .  A
C1957      C1960   1.451       .  S
C1958      C1961   1.450       .  S
C1959      N1966   1.157       .  T
C1960      N1965   1.157       .  T
C1961      N1963   1.157       .  T
C1962      N1964   1.157       .  T
C1967      C1972   1.410       .  A
C1968      C1969   1.416       .  A
C1968      C1973   1.449       .  S
C1969      C1976   1.450       .  S
C1970      C1971   1.418       .  A
C1971      C1972   1.404       .  A
C1971      C1974   1.453       .  S
C1972      C1975   1.447       .  S
C1974      N1979   1.158       .  T
C1975      N2637   1.156       .  T
C1976      N1978   1.157       .  T
N1977      C2635   1.156       .  T
C1981      C2312   1.414       .  A
C1981      C1986   1.419       .  A
C1981      C2300   1.498       .  S
C1982      C2311   1.414       .  A
C1982      C1983   1.398       .  A
C1982      H1987   1.082       .  S
C1983      C2314   1.400       .  A
C1983      C1992   1.487       .  S
C1984      C2313   1.400       .  A
C1984      C1985   1.409       .  A
C1984      H1988   1.080       .  S
C1985      C1986   1.411       .  A
C1985      C2010   1.512       .  S
C1986      H1989   1.081       .  S
C1990      C1991   1.413       .  A
C1990      C1995   1.422       .  A
C1990      C2286   1.497       .  S
C1991      C1992   1.388       .  A
C1991      H1996   1.083       .  S
C1992      C1993   1.398       .  A
C1993      C1994   1.413       .  A
C1993      H1997   1.075       .  S
C1994      C1995   1.412       .  A
C1994      C2001   1.521       .  S
C1995      H1998   1.081       .  S
C1999      C2000   1.423       .  A
C1999      C2004   1.412       .  A
C1999      C2272   1.500       .  S
C2000      C2001   1.416       .  A
C2000      H2005   1.080       .  S
C2001      C2002   1.407       .  A
C2002      C2003   1.400       .  A
C2002      H2006   1.080       .  S
C2003      C2004   1.395       .  A
C2003      C2012   1.478       .  S
C2004      H2007   1.084       .  S
C2008      C2009   1.419       .  A
C2008      C2343   1.411       .  A
C2008      C2258   1.494       .  S
C2009      C2010   1.412       .  A
C2009      H2014   1.082       .  S
C2010      C2011   1.407       .  A
C2011      C2342   1.393       .  A
C2011      H2015   1.076       .  S
C2012      C2341   1.393       .  A
C2012      C2013   1.391       .  A
C2013      C2338   1.411       .  A
C2013      H2016   1.083       .  S
C2017      C2018   1.417       .  A
C2017      C2022   1.409       .  A
C2017      C2241   1.496       .  S
C2018      C2019   1.410       .  A
C2018      H2023   1.083       .  S
C2019      C2020   1.410       .  A
C2019      C2028   1.504       .  S
C2020      C2021   1.406       .  A
C2020      H2024   1.083       .  S
C2021      C2022   1.391       .  A
C2021      C2046   1.483       .  S
C2022      H2025   1.082       .  S
C2026      C2027   1.421       .  A
C2026      C2031   1.413       .  A
C2026      C2230   1.497       .  S
C2027      C2028   1.407       .  A
C2027      H2032   1.082       .  S
C2028      C2029   1.400       .  A
C2029      C2030   1.395       .  A
C2029      H2033   1.077       .  S
C2030      C2031   1.391       .  A
C2030      C2037   1.477       .  S
C2031      H2034   1.083       .  S
C2035      C2036   1.405       .  A
C2035      C2040   1.411       .  A
C2035      C2213   1.480       .  S
C2036      C2037   1.394       .  A
C2036      H2041   1.084       .  S
C2037      C2038   1.402       .  A
C2038      C2039   1.410       .  A
C2038      H2042   1.082       .  S
C2039      C2040   1.410       .  A
C2039      C2048   1.505       .  S
C2040      H2043   1.082       .  S
C2044      C2045   1.415       .  A
C2044      C2049   1.420       .  A
C2044      C2199   1.495       .  S
C2045      C2046   1.392       .  A
C2045      H2050   1.082       .  S
C2046      C2047   1.394       .  A
C2047      C2048   1.402       .  A
C2047      H2051   1.076       .  S
C2048      C2049   1.404       .  A
C2049      H2052   1.082       .  S
C2053      C2054   1.421       .  A
C2053      C2058   1.412       .  A
C2053      C2188   1.490       .  S
C2054      C2055   1.414       .  A
C2054      H2059   1.083       .  S
C2055      C2056   1.407       .  A
C2055      C2075   1.516       .  S
C2056      C2057   1.392       .  A
C2056      H2060   1.076       .  S
C2057      C2058   1.395       .  A
C2057      C2064   1.484       .  S
C2058      H2061   1.083       .  S
C2062      C2063   1.415       .  A
C2062      C2067   1.428       .  A
C2062      C2171   1.510       .  S
C2063      C2064   1.397       .  A
C2063      H2068   1.084       .  S
C2064      C2065   1.401       .  A
C2065      C2066   1.409       .  A
C2065      H2069   1.081       .  S
C2066      C2067   1.417       .  A
C2066      C2082   1.526       .  S
C2067      H2070   1.079       .  S
C2071      C2072   1.423       .  A
C2071      C2076   1.427       .  A
C2071      C2157   1.519       .  S
C2072      C2073   1.396       .  A
C2072      H2077   1.078       .  S
C2073      C2074   1.399       .  A
C2073      C2084   1.498       .  S
C2074      C2075   1.409       .  A
C2074      H2078   1.081       .  S
C2075      C2076   1.416       .  A
C2076      H2079   1.082       .  S
C2080      C2081   1.432       .  A
C2080      C2085   1.423       .  A
C2080      C2143   1.521       .  S
C2081      C2082   1.416       .  A
C2081      H2086   1.080       .  S
C2082      C2083   1.410       .  A
C2083      C2084   1.394       .  A
C2083      H2087   1.074       .  S
C2084      C2085   1.393       .  A
C2085      H2088   1.080       .  S
O2089      C2100   1.299       .  A
O2090      C2101   1.294       .  A
O2091      C2102   1.287       .  A
O2091     Zr2427   2.416   1_554  S
O2092      C2103   1.288       .  A
O2092     Zr2097   2.419       .  S
O2093      C2103   1.294       .  A
O2094      C2102   1.293       .  A
O2095      C2101   1.290       .  A
O2095     Zr2097   2.430       .  S
O2096      C2430   1.287       .  A
Zr2097     O2421   2.417       .  S
O2098     Zr2124   2.349       .  S
O2098     Zr2127   2.348       .  S
O2099     Zr2126   2.335       .  S
C2100      C2297   1.489       .  S
C2100      O2426   1.287       .  A
C2101      C2283   1.481       .  S
C2102      C2202   1.475       .  S
C2103      C2244   1.492       .  S
H2104      O2105   0.966       .  S
O2105     Zr2454   2.347   1_554  S
O2105     Zr2126   2.340       .  S
H2106      O2107   0.966       .  S
O2107     Zr2127   2.336       .  S
O2108      C2131   1.294       .  A
O2108     Zr2124   2.449       .  S
O2109      C2132   1.294       .  A
O2109     Zr2125   2.448       .  S
O2110      C2133   1.295       .  A
O2110     Zr2126   2.449       .  S
O2111      C2134   1.294       .  A
O2111     Zr2127   2.449       .  S
O2112      C2135   1.296       .  A
O2113      C2136   1.291       .  A
O2114      C2137   1.292       .  A
O2114     Zr2458   2.436       .  S
O2115      C2138   1.289       .  A
O2115     Zr2128   2.430       .  S
O2116      C2137   1.288       .  A
O2116     Zr2126   2.423       .  S
O2117      C2138   1.291       .  A
O2117     Zr2127   2.436       .  S
O2118      C2133   1.295       .  A
O2118     Zr2454   2.451   1_554  S
O2119      C2136   1.299       .  A
O2119     Zr2125   2.470       .  S
O2120      C2135   1.293       .  A
O2120     Zr2455   2.441       .  S
O2121      C2134   1.295       .  A
O2121     Zr2124   2.455       .  S
O2122      C2131   1.290       .  A
O2122     Zr2128   2.433       .  S
O2123      C2132   1.290       .  A
Zr2124     O2448   2.451       .  S
Zr2124     O2435   2.347       .  S
Zr2124     O2460   2.337       .  S
Zr2124     O2142   2.340       .  S
Zr2125     O2450   2.441   1_554  S
Zr2126     O2130   2.342       .  S
Zr2126     O2140   2.347       .  S
Zr2127     O2129   2.342       .  S
Zr2127     O2142   2.344       .  S
Zr2128     O2444   2.436       .  S
Zr2128     O2129   2.340       .  S
Zr2128     O2460   2.334       .  S
Zr2128     O2142   2.334       .  S
Zr2128     O2470   2.342       .  S
O2130     Zr2454   2.337   1_554  S
O2130     Zr2458   2.334       .  S
C2131      C2269   1.509       .  S
C2132      C2255   1.479       .  S
C2133      C2160   1.509       .  S
C2134      C2185   1.486       .  S
C2135      C2174   1.514       .  S
C2136      C2146   1.501       .  S
C2137      C2216   1.473       .  S
C2138      C2227   1.510       .  S
H2139      O2140   0.966       .  S
O2140     Zr2458   2.342       .  S
H2141      O2142   0.965       .  S
C2143      C2144   1.426       .  A
C2143      C2148   1.424       .  A
C2144      C2145   1.416       .  A
C2144      C2149   1.451       .  S
C2145      C2146   1.412       .  A
C2145      C2152   1.450       .  S
C2146      C2147   1.415       .  A
C2147      C2148   1.413       .  A
C2147      C2150   1.450       .  S
C2148      C2151   1.451       .  S
C2149      N2156   1.158       .  T
C2151      N2153   1.158       .  T
C2152      N2154   1.157       .  T
C2157      C2158   1.424       .  A
C2157      C2162   1.420       .  A
C2158      C2159   1.417       .  A
C2158      C2163   1.452       .  S
C2159      C2160   1.420       .  A
C2159      C2166   1.452       .  S
C2160      C2161   1.418       .  A
C2161      C2162   1.412       .  A
C2161      C2164   1.451       .  S
C2162      C2165   1.451       .  S
C2163      N2170   1.158       .  T
C2164      N2169   1.158       .  T
C2165      N2167   1.158       .  T
C2166      N2168   1.157       .  T
C2171      C2172   1.421       .  A
C2171      C2176   1.416       .  A
C2172      C2173   1.410       .  A
C2172      C2177   1.454       .  S
C2173      C2174   1.421       .  A
C2173      C2180   1.454       .  S
C2174      C2175   1.422       .  A
C2175      C2176   1.420       .  A
C2175      C2178   1.448       .  S
C2176      C2179   1.451       .  S
C2177      N2184   1.158       .  T
C2179      N2181   1.158       .  T
C2180      N2182   1.158       .  T
C2185      C2186   1.412       .  A
C2185      C2190   1.411       .  A
C2186      C2187   1.413       .  A
C2186      C2191   1.451       .  S
C2187      C2188   1.414       .  A
C2187      C2194   1.450       .  S
C2188      C2189   1.411       .  A
C2189      C2190   1.413       .  A
C2191      N2198   1.157       .  T
C2192      N2197   1.157       .  T
C2193      N2195   1.155       .  T
C2194      N2196   1.157       .  T
C2199      C2200   1.419       .  A
C2199      C2204   1.421       .  A
C2200      C2201   1.400       .  A
C2200      C2205   1.453       .  S
C2201      C2202   1.403       .  A
C2201      C2208   1.444       .  S
C2202      C2203   1.409       .  A
C2203      C2204   1.413       .  A
C2205      N2212   1.158       .  T
C2206      N2211   1.158       .  T
C2207      N2209   1.157       .  T
C2208      N2210   1.154       .  T
C2213      C2214   1.411       .  A
C2213      C2218   1.415       .  A
C2214      C2215   1.404       .  A
C2214      C2219   1.452       .  S
C2215      C2216   1.409       .  A
C2215      C2222   1.451       .  S
C2216      C2217   1.411       .  A
C2217      C2218   1.410       .  A
C2217      C2220   1.451       .  S
C2218      C2221   1.451       .  S
C2219      N2226   1.157       .  T
C2222      N2224   1.157       .  T
C2227      C2228   1.428       .  A
C2227      C2232   1.422       .  A
C2228      C2229   1.415       .  A
C2228      C2233   1.452       .  S
C2229      C2230   1.413       .  A
C2229      C2236   1.452       .  S
C2230      C2231   1.416       .  A
C2231      C2232   1.404       .  A
C2231      C2234   1.455       .  S
C2232      C2235   1.454       .  S
C2233      N2240   1.158       .  T
C2234      N2239   1.158       .  T
C2235      N2237   1.158       .  T
C2236      N2238   1.158       .  T
C2241      C2242   1.413       .  A
C2241      C2246   1.418       .  A
C2242      C2243   1.407       .  A
C2242      C2247   1.454       .  S
C2243      C2244   1.420       .  A
C2243      C2250   1.450       .  S
C2244      C2245   1.415       .  A
C2245      C2246   1.411       .  A
C2245      C2248   1.451       .  S
C2246      C2249   1.452       .  S
C2249      N2251   1.158       .  T
C2255      C2586   1.409   1_554  A
C2255      C2260   1.409       .  A
C2256      C2585   1.409       .  A
C2256      C2257   1.411       .  A
C2256      C2261   1.451       .  S
C2257      C2588   1.419       .  A
C2257      C2264   1.451       .  S
C2258      C2587   1.419   1_554  A
C2258      C2259   1.416       .  A
C2259      C2260   1.408       .  A
C2259      C2262   1.452       .  S
C2260      C2263   1.448       .  S
C2261      N2268   1.157       .  T
C2262      N2267   1.157       .  T
C2263      N2265   1.155       .  T
C2264      N2266   1.157       .  T
C2269      C2600   1.427       .  A
C2269      C2274   1.422       .  A
C2270      C2599   1.427   1_554  A
C2270      C2271   1.417       .  A
C2270      C2275   1.452       .  S
C2271      C2602   1.412   1_554  A
C2271      C2278   1.452       .  S
C2272      C2601   1.412       .  A
C2272      C2273   1.417       .  A
C2273      C2274   1.409       .  A
C2273      C2276   1.455       .  S
C2274      C2277   1.454       .  S
C2275      N2282   1.158       .  T
C2276      N2281   1.157       .  T
C2277      N2279   1.158       .  T
C2278      N2280   1.158       .  T
C2283      C2614   1.410       .  A
C2283      C2288   1.410       .  A
C2284      C2613   1.410   1_554  A
C2284      C2285   1.409       .  A
C2284      C2289   1.450       .  S
C2285      C2616   1.419   1_554  A
C2285      C2292   1.453       .  S
C2286      C2615   1.419       .  A
C2286      C2287   1.418       .  A
C2287      C2288   1.409       .  A
C2287      C2290   1.451       .  S
C2288      C2291   1.450       .  S
C2289      N2296   1.157       .  T
C2290      N2295   1.157       .  T
C2291      N2293   1.157       .  T
C2292      N2294   1.157       .  T
C2297      C2628   1.410       .  A
C2297      C2302   1.410   1_556  A
C2298      C2627   1.410       .  A
C2298      C2299   1.416       .  A
C2298      C2303   1.449       .  S
C2299      C2630   1.419       .  A
C2299      C2306   1.450       .  S
C2300      C2629   1.419   1_554  A
C2300      C2301   1.418       .  A
C2301      C2302   1.404       .  A
C2301      C2304   1.453       .  S
C2302      C2305   1.447       .  S
C2304      N2309   1.158       .  T
C2306      N2308   1.157       .  T
C2311      C2316   1.419       .  A
C2311      C2630   1.498       .  S
C2312      C2313   1.398       .  A
C2312      H2317   1.082   1_554  S
C2313      C2322   1.487   1_554  S
C2314      C2315   1.409       .  A
C2314      H2318   1.080       .  S
C2315      C2316   1.411       .  A
C2315      C2340   1.512       .  S
C2316      H2319   1.081       .  S
C2320      C2321   1.413       .  A
C2320      C2325   1.422       .  A
C2320      C2616   1.497       .  S
C2321      C2322   1.388       .  A
C2321      H2326   1.083   1_556  S
C2322      C2323   1.398       .  A
C2323      C2324   1.413       .  A
C2323      H2327   1.075       .  S
C2324      C2325   1.412       .  A
C2324      C2331   1.521       .  S
C2325      H2328   1.081       .  S
C2329      C2330   1.423       .  A
C2329      C2334   1.412       .  A
C2329      C2602   1.500       .  S
C2330      C2331   1.416       .  A
C2330      H2335   1.080       .  S
C2331      C2332   1.407       .  A
C2332      C2333   1.400       .  A
C2332      H2336   1.080       .  S
C2333      C2334   1.395       .  A
C2333      C2342   1.478   1_556  S
C2334      H2337   1.084   1_556  S
C2338      C2339   1.419       .  A
C2338      C2588   1.494       .  S
C2339      C2340   1.412       .  A
C2339      H2344   1.082       .  S
C2340      C2341   1.407       .  A
C2341      H2345   1.076       .  S
C2342      C2343   1.391       .  A
C2343      H2346   1.083   1_554  S
C2347      C2348   1.417       .  A
C2347      C2352   1.409       .  A
C2347      C2571   1.496       .  S
C2348      C2349   1.410       .  A
C2348      H2353   1.083       .  S
C2349      C2350   1.410       .  A
C2349      C2358   1.504       .  S
C2350      C2351   1.406       .  A
C2350      H2354   1.083       .  S
C2351      C2352   1.391       .  A
C2351      C2376   1.483       .  S
C2352      H2355   1.082       .  S
C2356      C2357   1.421       .  A
C2356      C2361   1.413       .  A
C2356      C2560   1.497       .  S
C2357      C2358   1.407       .  A
C2357      H2362   1.082       .  S
C2358      C2359   1.400       .  A
C2359      C2360   1.395       .  A
C2359      H2363   1.077       .  S
C2360      C2361   1.391       .  A
C2360      C2367   1.477       .  S
C2361      H2364   1.083       .  S
C2365      C2366   1.405       .  A
C2365      C2370   1.411       .  A
C2365      C2543   1.480       .  S
C2366      C2367   1.394       .  A
C2366      H2371   1.084       .  S
C2367      C2368   1.402       .  A
C2368      C2369   1.410       .  A
C2368      H2372   1.082       .  S
C2369      C2370   1.410       .  A
C2369      C2378   1.505       .  S
C2370      H2373   1.082       .  S
C2374      C2375   1.415       .  A
C2374      C2379   1.420       .  A
C2374      C2529   1.495       .  S
C2375      C2376   1.392       .  A
C2375      H2380   1.082       .  S
C2376      C2377   1.394       .  A
C2377      C2378   1.402       .  A
C2377      H2381   1.076       .  S
C2378      C2379   1.404       .  A
C2379      H2382   1.082       .  S
C2383      C2384   1.421       .  A
C2383      C2388   1.412       .  A
C2383      C2518   1.490       .  S
C2384      C2385   1.414       .  A
C2384      H2389   1.083       .  S
C2385      C2386   1.407       .  A
C2385      C2405   1.516       .  S
C2386      C2387   1.392       .  A
C2386      H2390   1.076       .  S
C2387      C2388   1.395       .  A
C2387      C2394   1.484       .  S
C2388      H2391   1.083       .  S
C2392      C2393   1.415       .  A
C2392      C2397   1.428       .  A
C2392      C2501   1.510       .  S
C2393      C2394   1.397       .  A
C2393      H2398   1.084       .  S
C2394      C2395   1.401       .  A
C2395      C2396   1.409       .  A
C2395      H2399   1.081       .  S
C2396      C2397   1.417       .  A
C2396      C2412   1.526       .  S
C2397      H2400   1.079       .  S
C2401      C2402   1.423       .  A
C2401      C2406   1.427       .  A
C2401      C2487   1.519       .  S
C2402      C2403   1.396       .  A
C2402      H2407   1.078       .  S
C2403      C2404   1.399       .  A
C2403      C2414   1.498       .  S
C2404      C2405   1.409       .  A
C2404      H2408   1.081       .  S
C2405      C2406   1.416       .  A
C2406      H2409   1.082       .  S
C2410      C2411   1.432       .  A
C2410      C2415   1.423       .  A
C2410      C2473   1.521       .  S
C2411      C2412   1.416       .  A
C2411      H2416   1.080       .  S
C2412      C2413   1.410       .  A
C2413      C2414   1.394       .  A
C2413      H2417   1.074       .  S
C2414      C2415   1.393       .  A
C2415      H2418   1.080       .  S
O2419      C2430   1.299       .  A
O2420      C2431   1.294       .  A
O2421      C2432   1.287       .  A
O2422      C2433   1.288       .  A
O2422     Zr2427   2.419       .  S
O2423      C2433   1.294       .  A
O2424      C2432   1.293       .  A
O2425      C2431   1.290       .  A
O2425     Zr2427   2.430       .  S
O2428     Zr2454   2.349       .  S
O2428     Zr2457   2.348       .  S
O2429     Zr2456   2.335       .  S
C2430      C2627   1.489       .  S
C2431      C2613   1.481       .  S
C2432      C2532   1.475       .  S
C2433      C2574   1.492       .  S
H2434      O2435   0.966       .  S
O2435     Zr2456   2.340       .  S
H2436      O2437   0.966       .  S
O2437     Zr2457   2.336       .  S
O2438      C2461   1.294   1_554  A
O2438     Zr2454   2.449   1_554  S
O2439      C2462   1.294       .  A
O2439     Zr2455   2.448       .  S
O2440      C2463   1.295       .  A
O2440     Zr2456   2.449       .  S
O2441      C2464   1.294       .  A
O2441     Zr2457   2.449       .  S
O2442      C2465   1.296       .  A
O2443      C2466   1.291       .  A
O2444      C2467   1.292       .  A
O2445      C2468   1.289       .  A
O2445     Zr2458   2.430   1_556  S
O2446      C2467   1.288       .  A
O2446     Zr2456   2.423       .  S
O2447      C2468   1.291       .  A
O2447     Zr2457   2.436       .  S
O2448      C2463   1.295       .  A
O2449      C2466   1.299       .  A
O2449     Zr2455   2.470       .  S
O2450      C2465   1.293       .  A
O2451      C2464   1.295       .  A
O2451     Zr2454   2.455       .  S
O2452      C2461   1.290       .  A
O2452     Zr2458   2.433   1_556  S
O2453      C2462   1.290       .  A
Zr2454     O2472   2.340       .  S
Zr2456     O2460   2.342       .  S
Zr2456     O2470   2.347       .  S
Zr2457     O2459   2.342       .  S
Zr2457     O2472   2.344       .  S
Zr2458     O2459   2.340   1_554  S
Zr2458     O2472   2.334   1_554  S
C2461      C2599   1.509       .  S
C2462      C2585   1.479       .  S
C2463      C2490   1.509       .  S
C2464      C2515   1.486       .  S
C2465      C2504   1.514       .  S
C2466      C2476   1.501       .  S
C2467      C2546   1.473       .  S
C2468      C2557   1.510       .  S
H2469      O2470   0.966       .  S
H2471      O2472   0.965       .  S
C2473      C2474   1.426       .  A
C2473      C2478   1.424       .  A
C2474      C2475   1.416       .  A
C2474      C2479   1.451       .  S
C2475      C2476   1.412       .  A
C2475      C2482   1.450       .  S
C2476      C2477   1.415       .  A
C2477      C2478   1.413       .  A
C2477      C2480   1.450       .  S
C2478      C2481   1.451       .  S
C2479      N2486   1.158       .  T
C2481      N2483   1.158       .  T
C2482      N2484   1.157       .  T
C2487      C2488   1.424       .  A
C2487      C2492   1.420       .  A
C2488      C2489   1.417       .  A
C2488      C2493   1.452       .  S
C2489      C2490   1.420       .  A
C2489      C2496   1.452       .  S
C2490      C2491   1.418       .  A
C2491      C2492   1.412       .  A
C2491      C2494   1.451       .  S
C2492      C2495   1.451       .  S
C2493      N2500   1.158       .  T
C2494      N2499   1.158       .  T
C2495      N2497   1.158       .  T
C2496      N2498   1.157       .  T
C2501      C2502   1.421       .  A
C2501      C2506   1.416       .  A
C2502      C2503   1.410       .  A
C2502      C2507   1.454       .  S
C2503      C2504   1.421       .  A
C2503      C2510   1.454       .  S
C2504      C2505   1.422       .  A
C2505      C2506   1.420       .  A
C2505      C2508   1.448       .  S
C2506      C2509   1.451       .  S
C2507      N2514   1.158       .  T
C2509      N2511   1.158       .  T
C2510      N2512   1.158       .  T
C2515      C2516   1.412       .  A
C2515      C2520   1.411       .  A
C2516      C2517   1.413       .  A
C2516      C2521   1.451       .  S
C2517      C2518   1.414       .  A
C2517      C2524   1.450       .  S
C2518      C2519   1.411       .  A
C2519      C2520   1.413       .  A
C2521      N2528   1.157       .  T
C2522      N2527   1.157       .  T
C2523      N2525   1.155       .  T
C2524      N2526   1.157       .  T
C2529      C2530   1.419       .  A
C2529      C2534   1.421       .  A
C2530      C2531   1.400       .  A
C2530      C2535   1.453       .  S
C2531      C2532   1.403       .  A
C2531      C2538   1.444       .  S
C2532      C2533   1.409       .  A
C2533      C2534   1.413       .  A
C2535      N2542   1.158       .  T
C2536      N2541   1.158       .  T
C2537      N2539   1.157       .  T
C2538      N2540   1.154       .  T
C2543      C2544   1.411       .  A
C2543      C2548   1.415       .  A
C2544      C2545   1.404       .  A
C2544      C2549   1.452       .  S
C2545      C2546   1.409       .  A
C2545      C2552   1.451       .  S
C2546      C2547   1.411       .  A
C2547      C2548   1.410       .  A
C2547      C2550   1.451       .  S
C2548      C2551   1.451       .  S
C2549      N2556   1.157       .  T
C2552      N2554   1.157       .  T
C2557      C2558   1.428       .  A
C2557      C2562   1.422       .  A
C2558      C2559   1.415       .  A
C2558      C2563   1.452       .  S
C2559      C2560   1.413       .  A
C2559      C2566   1.452       .  S
C2560      C2561   1.416       .  A
C2561      C2562   1.404       .  A
C2561      C2564   1.455       .  S
C2562      C2565   1.454       .  S
C2563      N2570   1.158       .  T
C2564      N2569   1.158       .  T
C2565      N2567   1.158       .  T
C2566      N2568   1.158       .  T
C2571      C2572   1.413       .  A
C2571      C2576   1.418       .  A
C2572      C2573   1.407       .  A
C2572      C2577   1.454       .  S
C2573      C2574   1.420       .  A
C2573      C2580   1.450       .  S
C2574      C2575   1.415       .  A
C2575      C2576   1.411       .  A
C2575      C2578   1.451       .  S
C2576      C2579   1.452       .  S
C2579      N2581   1.158       .  T
C2585      C2590   1.409       .  A
C2586      C2587   1.411       .  A
C2586      C2591   1.451       .  S
C2587      C2594   1.451       .  S
C2588      C2589   1.416       .  A
C2589      C2590   1.408       .  A
C2589      C2592   1.452       .  S
C2590      C2593   1.448       .  S
C2591      N2598   1.157       .  T
C2592      N2597   1.157       .  T
C2593      N2595   1.155       .  T
C2594      N2596   1.157       .  T
C2599      C2604   1.422       .  A
C2600      C2601   1.417       .  A
C2600      C2605   1.452       .  S
C2601      C2608   1.452       .  S
C2602      C2603   1.417       .  A
C2603      C2604   1.409       .  A
C2603      C2606   1.455       .  S
C2604      C2607   1.454       .  S
C2605      N2612   1.158       .  T
C2606      N2611   1.157       .  T
C2607      N2609   1.158       .  T
C2608      N2610   1.158       .  T
C2613      C2618   1.410       .  A
C2614      C2615   1.410       .  A
C2614      C2619   1.450       .  S
C2615      C2622   1.452       .  S
C2616      C2617   1.418       .  A
C2617      C2618   1.409       .  A
C2617      C2620   1.451       .  S
C2618      C2621   1.450       .  S
C2619      N2626   1.157       .  T
C2620      N2625   1.157       .  T
C2621      N2623   1.157       .  T
C2622      N2624   1.157       .  T
C2627      C2632   1.410       .  A
C2628      C2629   1.416       .  A
C2628      C2633   1.449       .  S
C2629      C2636   1.450       .  S
C2630      C2631   1.418       .  A
C2631      C2632   1.404       .  A
C2631      C2634   1.453       .  S
C2632      C2635   1.447       .  S
C2634      N2639   1.158       .  T
C2636      N2638   1.157       .  T
