geometry optimzed in LAMMPS
_audit_creation_date              2020-12-01 
_audit_creation_method            'lammps2cif' 
_symmetry_space_group_name_H-M    'P1' 
_symmetry_Int_Tables_number       1 
_symmetry_cell_setting            triclinic 
loop_ 
_symmetry_equiv_pos_as_xyz 
  x,y,z 
_cell_length_a                    45.05169834 
_cell_length_b                    44.94489615738071 
_cell_length_c                    45.535702464249944 
_cell_angle_alpha                 89.60599374376143 
_cell_angle_beta                  90.27238603063913 
_cell_angle_gamma                 90.48530478997165 
loop_ 
_atom_site_label 
_atom_site_type_symbol 
_atom_site_fract_x 
_atom_site_fract_y 
_atom_site_fract_z 
_atom_site_charge 
C1          C  0.36891959  0.63149198  0.62321352    -0.01400
N2          N  0.47455736  0.43332234  0.51411632    -0.05000
N3          N  0.46896968  0.41181098  0.53308554    -0.57200
N4          N  0.45185914  0.45686257  0.44858351    -0.04700
N5          N  0.43241893  0.45408055  0.42707314    -0.59300
N6          N  0.47186207  0.43590154  0.44738109    -0.04300
N7          N  0.46630230  0.41817770  0.42509539    -0.57100
N8          N  0.45442324  0.45424374  0.51555289    -0.04000
N9          N  0.43460379  0.44750054  0.53569272    -0.59600
C10         C  0.44433141  0.42130478  0.54656708     0.97100
C11         C  0.44174993  0.42992784  0.41240399     0.96900
N12         N  0.47438752  0.54554569  0.44913094    -0.05200
N13         N  0.46939821  0.56490060  0.42785215    -0.57700
N14         N  0.45494607  0.52433942  0.51653624    -0.03400
N15         N  0.43376292  0.53168379  0.53489626    -0.59000
N16         N  0.47584254  0.54491465  0.51603017    -0.05300
N17         N  0.46929641  0.56671501  0.53392954    -0.58000
N18         N  0.45345306  0.52505304  0.44959390    -0.03000
N19         N  0.43379700  0.52987526  0.42864998    -0.59100
Mn20       Mn  0.45274625  0.49009145  0.48287360     1.18400
C21         C  0.44434177  0.55443970  0.41495045     0.99200
C22         C  0.44317188  0.55804237  0.54572090     0.99900
N23         N  0.54070125  0.43494206  0.44565030    -0.05300
N24         N  0.54581848  0.41411200  0.42625140    -0.61600
N25         N  0.56460843  0.45332550  0.51244629    -0.04100
N26         N  0.58559423  0.44688685  0.53164430    -0.62300
N27         N  0.54373851  0.43270652  0.51266947    -0.04800
N28         N  0.55013792  0.41173320  0.53207564    -0.61900
N29         N  0.56216309  0.45486671  0.44567902    -0.03700
N30         N  0.58261445  0.44771194  0.42653105    -0.62500
Mn31       Mn  0.50766664  0.43330861  0.47995009     1.10700
C32         C  0.57199160  0.42236515  0.41438512     1.00400
C33         C  0.57599647  0.42124017  0.54411838     1.00500
N34         N  0.54548139  0.54331825  0.51543868    -0.04800
N35         N  0.55141724  0.56151925  0.53738344    -0.60200
N36         N  0.56316315  0.52455832  0.44609868    -0.04100
N37         N  0.58125274  0.52986742  0.42391363    -0.56900
N38         N  0.54283004  0.54524339  0.44735901    -0.05400
N39         N  0.54643569  0.56490972  0.42605078    -0.59700
N40         N  0.56564217  0.52242558  0.51413368    -0.04400
N41         N  0.58562517  0.52587168  0.53510200    -0.56900
Mn42       Mn  0.50982175  0.54580267  0.48216704     1.20200
Mn43       Mn  0.56494403  0.48895825  0.47948575     1.10100
Cl44       Cl  0.50880746  0.48954114  0.48129286    -0.84900
C45         C  0.57626688  0.55006773  0.54974193     0.97400
C46         C  0.57012183  0.55475843  0.41123213     0.97200
C47         C  0.66411532  0.35107124  0.61278977    -0.01400
C48         C  0.37337544  0.34492420  0.34061604    -0.01400
C49         C  0.65120155  0.62631129  0.33570036    -0.01400
C50         C  0.37070863  0.63434897  0.34051922    -0.01400
C51         C  0.64839939  0.34575385  0.34220047    -0.01400
C52         C  0.36815081  0.35044133  0.62544289    -0.01400
C53         C  0.65491851  0.62828103  0.62084511    -0.01400
N54         N  0.30714417  0.21648834  0.97809570    -0.35500
N55         N  0.27188500  0.24709110  0.02346015    -0.56100
N56         N  0.24018845  0.27931678  0.97743601    -0.35500
N57         N  0.27418178  0.24781595  0.93190177    -0.56100
C58         C  0.31329221  0.19969409  0.00233884     0.28000
C59         C  0.31497648  0.20055938  0.95398364     0.28100
C60         C  0.22685176  0.29133571  0.00129455     0.28000
C61         C  0.22795612  0.29162126  0.95297823     0.28000
C62         C  0.28984975  0.23117851  0.04138116     0.36700
C63         C  0.25594210  0.26524133  0.04089104     0.36700
C64         C  0.29266692  0.23228318  0.91443521     0.36700
C65         C  0.25741554  0.26511805  0.91400378     0.36700
C66         C  0.32535881  0.17297525  0.99316533    -0.20800
C67         C  0.32668253  0.17366627  0.96299578    -0.20800
C68         C  0.20593121  0.31168149  0.99163228    -0.20800
C69         C  0.20682469  0.31210621  0.96145613    -0.20800
C70         C  0.28494278  0.23914311  0.07036650    -0.21900
C71         C  0.26417267  0.26104519  0.06997280    -0.21900
C72         C  0.28789537  0.24007008  0.88533218    -0.21900
C73         C  0.26517731  0.26010747  0.88498708    -0.21900
C74         C  0.30873786  0.20779314  0.03246906    -0.17200
C75         C  0.31191818  0.20923349  0.92389958    -0.17200
C76         C  0.23460110  0.28477294  0.92307988    -0.17200
C77         C  0.23302769  0.28470404  0.03151499    -0.17200
H78         H  0.33146896  0.15405578  0.00646689     0.15700
H79         H  0.33452761  0.15588385  0.94920048     0.15700
H80         H  0.19182072  0.32549507  0.00475866     0.15700
H81         H  0.19333322  0.32607443  0.94737869     0.15700
H82         H  0.29466721  0.22990877  0.09011809     0.14000
H83         H  0.25570281  0.27210636  0.08918720     0.14000
H84         H  0.29882708  0.23144927  0.86611363     0.14000
H85         H  0.25550990  0.26959965  0.86532178     0.14000
H86         H  0.29909163  0.23804218  0.97809976     0.27200
H87         H  0.25637692  0.26327067  0.97762499     0.27200
N88         N  0.28967794  0.98775658  0.19582491    -0.35500
N89         N  0.25935353  0.94246146  0.23025433    -0.56100
N90         N  0.22682520  0.98874592  0.25979488    -0.35500
N91         N  0.26018159  0.03441469  0.22764287    -0.56100
C92         C  0.30710599  0.96355490  0.19264189     0.28000
C93         C  0.30659123  0.01232459  0.19056753     0.28100
C94         C  0.22474881  0.96479462  0.27781882     0.28000
C95         C  0.22578746  0.01323722  0.27684198     0.28000
C96         C  0.27090058  0.92566851  0.20879314     0.36700
C97         C  0.23689066  0.92649666  0.24210935     0.36700
C98         C  0.26885962  0.04894779  0.20311167     0.36700
C99         C  0.23726157  0.04974423  0.23872369     0.36700
C100        C  0.33567304  0.97281445  0.18572181    -0.20800
C101        C  0.33543873  0.00358722  0.18464150    -0.20800
C102        C  0.22295682  0.97410671  0.30669979    -0.20800
C103        C  0.22410333  0.00481112  0.30600898    -0.20800
C104        C  0.25567937  0.89891157  0.20668050    -0.21900
C105        C  0.23386911  0.89954905  0.22771447    -0.21900
C106        C  0.25054639  0.07314980  0.19798131    -0.21900
C107        C  0.23098866  0.07415715  0.22119819    -0.21900
C108        C  0.29682161  0.93352004  0.19345801    -0.17200
C109        C  0.29524720  0.04183207  0.18807074    -0.17200
C110        C  0.22429300  0.04263032  0.26588637    -0.17200
C111        C  0.22236665  0.93503904  0.26810759    -0.17200
H112        H  0.35462882  0.95884434  0.18168146     0.15700
H113        H  0.35415890  0.01784313  0.17930609     0.15700
H114        H  0.22144713  0.96019987  0.32614539     0.15700
H115        H  0.22526763  0.01927550  0.32474035     0.15700
H116        H  0.26028374  0.88064428  0.19206916     0.14000
H117        H  0.21861998  0.88165794  0.23262592     0.14000
H118        H  0.25195573  0.08908569  0.18010872     0.14000
H119        H  0.21420239  0.09080726  0.22480698     0.14000
H120        H  0.26677128  0.98744120  0.19898604     0.27200
H121        H  0.22675466  0.98840951  0.23687266     0.27200
N122        N  0.01734445  0.26644894  0.20394239    -0.35500
N123        N  0.96946275  0.23566815  0.23550610    -0.56100
N124        N  0.01390688  0.20433755  0.27126050    -0.35500
N125        N  0.06197623  0.23520987  0.23973056    -0.56100
C126        C  0.99353520  0.28134327  0.19299979     0.28000
C127        C  0.04226289  0.28129438  0.19537922     0.28100
C128        C  0.98895890  0.18977599  0.28016596     0.28000
C129        C  0.03758448  0.18910759  0.28193525     0.28000
C130        C  0.95252063  0.25149980  0.21655607     0.36700
C131        C  0.95070561  0.21800745  0.25097408     0.36700
C132        C  0.08075519  0.25144183  0.22267465     0.36700
C133        C  0.07890479  0.21814819  0.25775883     0.36700
C134        C  0.00359314  0.30567835  0.17688942    -0.20800
C135        C  0.03410541  0.30577306  0.17854653    -0.20800
C136        C  0.99716202  0.16551751  0.29734603    -0.20800
C137        C  0.02751029  0.16485714  0.29807174    -0.20800
C138        C  0.92284760  0.24390654  0.22016178    -0.21900
C139        C  0.92174447  0.22252260  0.24156417    -0.21900
C140        C  0.10980929  0.24435041  0.22977432    -0.21900
C141        C  0.10866280  0.22422155  0.25248778    -0.21900
C142        C  0.96297877  0.27343099  0.19653690    -0.17200
C143        C  0.07232675  0.27315805  0.20130252    -0.17200
C144        C  0.06819597  0.19608779  0.27789427    -0.17200
C145        C  0.95898529  0.19719127  0.27299739    -0.17200
H146        H  0.99041320  0.32199542  0.16530019     0.15700
H147        H  0.04865479  0.32211543  0.16842068     0.15700
H148        H  0.98309423  0.14900869  0.30762750     0.15700
H149        H  0.04062365  0.14804843  0.30909321     0.15700
H150        H  0.90377791  0.25275995  0.20864395     0.14000
H151        H  0.90172832  0.21147508  0.24909941     0.14000
H152        H  0.12997143  0.25298653  0.22000880     0.14000
H153        H  0.12783520  0.21483839  0.26336474     0.14000
H154        H  0.01669349  0.24657891  0.21549644     0.27200
H155        H  0.01469490  0.22387676  0.25919707     0.27200
N156        N  0.50942514  0.26105774  0.27005850    -0.35500
N157        N  0.55550914  0.22912807  0.24063253    -0.56100
N158        N  0.51089181  0.19695111  0.20706515    -0.35500
N159        N  0.46461048  0.23101718  0.23440961    -0.56100
C160        C  0.53370042  0.27880324  0.27313718     0.28000
C161        C  0.48536501  0.27877680  0.27147708     0.28100
C162        C  0.53621390  0.19323173  0.19168832     0.28000
C163        C  0.48797795  0.19330567  0.18801676     0.28000
C164        C  0.57175615  0.24205805  0.26189333     0.36700
C165        C  0.57243481  0.20752443  0.22957438     0.36700
C166        C  0.44693875  0.24385569  0.25447888     0.36700
C167        C  0.44762125  0.21096858  0.21997449     0.36700
C168        C  0.52493917  0.30810878  0.27603964    -0.20800
C169        C  0.49437610  0.30803978  0.27458869    -0.20800
C170        C  0.52944972  0.18827235  0.16259441    -0.20800
C171        C  0.49912251  0.18679314  0.16042164    -0.20800
C172        C  0.59908009  0.22838619  0.26476749    -0.21900
C173        C  0.59959967  0.20643589  0.24393283    -0.21900
C174        C  0.41855292  0.23188756  0.25295054    -0.21900
C175        C  0.41881949  0.21143082  0.23064230    -0.21900
C176        C  0.56336427  0.26867199  0.27511504    -0.17200
C177        C  0.45559018  0.26868250  0.27133167    -0.17200
C178        C  0.45750475  0.19451334  0.19559988    -0.17200
C179        C  0.56510840  0.19258108  0.20371241    -0.17200
H180        H  0.53913128  0.32751315  0.27831395     0.15700
H181        H  0.48043335  0.32738897  0.27391548     0.15700
H182        H  0.54478901  0.18732459  0.14453704     0.15700
H183        H  0.48720695  0.18206460  0.14037403     0.15700
H184        H  0.61719995  0.23458679  0.27923096     0.14000
H185        H  0.61821882  0.19227694  0.23900260     0.14000
H186        H  0.39936261  0.23820012  0.26560833     0.14000
H187        H  0.39978018  0.19891641  0.22284425     0.14000
H188        H  0.50911294  0.23787572  0.26904540     0.27200
H189        H  0.50931432  0.19996508  0.22967690     0.27200
N190        N  0.23452544  0.20291714  0.48525935    -0.35500
N191        N  0.26438082  0.23471653  0.53218365    -0.56100
N192        N  0.29848810  0.26888004  0.48823553    -0.35500
N193        N  0.27082514  0.23438055  0.44155193    -0.56100
C194        C  0.22783775  0.18616957  0.50931014     0.28000
C195        C  0.23093080  0.18549233  0.46128440     0.28100
C196        C  0.31372645  0.27443722  0.51346177     0.28000
C197        C  0.31688772  0.27459241  0.46525471     0.28000
C198        C  0.24069942  0.22337002  0.54679426     0.36700
C199        C  0.27536968  0.25705727  0.54882279     0.36700
C200        C  0.25071825  0.22086303  0.42375067     0.36700
C201        C  0.28365146  0.25652242  0.42554325     0.36700
C202        C  0.22066796  0.15753501  0.50057933    -0.20800
C203        C  0.22179508  0.15730925  0.47038980    -0.20800
C204        C  0.34226991  0.28366853  0.50646901    -0.20800
C205        C  0.34436303  0.28351436  0.47615147    -0.20800
C206        C  0.23630134  0.23895461  0.57252059    -0.21900
C207        C  0.25876720  0.25968763  0.57424278    -0.21900
C208        C  0.25134599  0.23411307  0.39615721    -0.21900
C209        C  0.27122012  0.25728662  0.39765208    -0.21900
C210        C  0.22537368  0.19709685  0.53847034    -0.17200
C211        C  0.23347406  0.19542107  0.43159738    -0.17200
C212        C  0.30857444  0.27373738  0.43488448    -0.17200
C213        C  0.30154932  0.27338370  0.54228707    -0.17200
H214        H  0.21413304  0.13897250  0.51443847     0.15700
H215        H  0.21605418  0.13835756  0.45703808     0.15700
H216        H  0.35977882  0.28990454  0.52162026     0.15700
H217        H  0.36378362  0.28974880  0.46355697     0.15700
H218        H  0.21938274  0.23506296  0.58892247     0.14000
H219        H  0.26243201  0.27476770  0.59232674     0.14000
H220        H  0.23914782  0.22779309  0.37665450     0.14000
H221        H  0.27666178  0.27218201  0.37970404     0.14000
H222        H  0.23896025  0.22568561  0.48499209     0.27200
H223        H  0.27601854  0.26348846  0.48679019     0.27200
N224        N  0.29081279  0.48759616  0.26969608    -0.35500
N225        N  0.26435464  0.44038332  0.23315840    -0.56100
N226        N  0.23424072  0.48577055  0.19789290    -0.35500
N227        N  0.26315621  0.53308523  0.23176953    -0.56100
C228        C  0.30589923  0.46353057  0.27989723     0.28000
C229        C  0.30524085  0.51245064  0.27919598     0.28100
C230        C  0.22899577  0.46101870  0.18169538     0.28000
C231        C  0.22783381  0.50977754  0.18081423     0.28000
C232        C  0.27666822  0.42327546  0.25450041     0.36700
C233        C  0.24564533  0.42250994  0.21773997     0.36700
C234        C  0.27491345  0.55102773  0.25277119     0.36700
C235        C  0.24455091  0.54996919  0.21519333     0.36700
C236        C  0.32968400  0.47336157  0.29683705    -0.20800
C237        C  0.32948032  0.50397766  0.29609358    -0.20800
C238        C  0.21955634  0.46943259  0.15386601    -0.20800
C239        C  0.21811133  0.49994956  0.15353315    -0.20800
C240        C  0.26620077  0.39426925  0.25203575    -0.21900
C241        C  0.24599881  0.39403007  0.22950110    -0.21900
C242        C  0.26392363  0.57955530  0.24928818    -0.21900
C243        C  0.24482089  0.57891164  0.22557381    -0.21900
C244        C  0.29855567  0.43291397  0.27502086    -0.17200
C245        C  0.29694674  0.54263937  0.27381802    -0.17200
C246        C  0.22856179  0.54010083  0.18986525    -0.17200
C247        C  0.22979224  0.43103057  0.19202637    -0.17200
H248        H  0.34571191  0.45996351  0.30860060     0.15700
H249        H  0.34544491  0.51833222  0.30695291     0.15700
H250        H  0.21328594  0.45501588  0.13589042     0.15700
H251        H  0.21020934  0.51307867  0.13519484     0.15700
H252        H  0.27232142  0.37497546  0.26490204     0.14000
H253        H  0.23370590  0.37469381  0.22220627     0.14000
H254        H  0.26938250  0.59893142  0.26228136     0.14000
H255        H  0.23284178  0.59776361  0.21675932     0.14000
H256        H  0.27124324  0.48708207  0.25770658     0.27200
H257        H  0.23961332  0.48619799  0.22004087     0.27200
N258        N  0.23895713  0.70218047  0.98506471    -0.35500
N259        N  0.27271467  0.73052411  0.93918550    -0.56100
N260        N  0.30151422  0.76880906  0.98349396    -0.35500
N261        N  0.27030291  0.73797288  0.02970572    -0.56100
C262        C  0.23685103  0.68277293  0.96250536     0.28000
C263        C  0.23585252  0.68649891  0.01035975     0.28100
C264        C  0.31968313  0.77094388  0.95988536     0.28000
C265        C  0.31802920  0.77397139  0.00806895     0.28000
C266        C  0.25057113  0.71762295  0.92337048     0.36700
C267        C  0.28462247  0.75219667  0.92209173     0.36700
C268        C  0.24612824  0.72771273  0.04395709     0.36700
C269        C  0.27860496  0.76350661  0.04300840     0.36700
C270        C  0.23323500  0.65417185  0.97368333    -0.20800
C271        C  0.23252152  0.65658648  0.00397203    -0.20800
C272        C  0.34824594  0.77740834  0.96964817    -0.20800
C273        C  0.34744795  0.77781580  0.99994997    -0.20800
C274        C  0.24785454  0.73175245  0.89640532    -0.21900
C275        C  0.27017887  0.75270043  0.89507661    -0.21900
C276        C  0.23861469  0.74693401  0.06633928    -0.21900
C277        C  0.25877392  0.77020477  0.06515756    -0.21900
C278        C  0.23534556  0.69136560  0.93240350    -0.17200
C279        C  0.23334881  0.69959751  0.03839226    -0.17200
C280        C  0.30595812  0.77787036  0.03685802    -0.17200
C281        C  0.30993488  0.76942298  0.93006246    -0.17200
H282        H  0.23069963  0.63384959  0.96127294     0.15700
H283        H  0.23001487  0.63843823  0.01949124     0.15700
H284        H  0.36782928  0.78174507  0.95671400     0.15700
H285        H  0.36627754  0.78195368  0.01422718     0.15700
H286        H  0.23229088  0.72674663  0.87893383     0.14000
H287        H  0.27514063  0.76629153  0.87604173     0.14000
H288        H  0.22073548  0.74434492  0.08195861     0.14000
H289        H  0.25957383  0.78909213  0.07976325     0.14000
H290        H  0.23991030  0.72532967  0.98327437     0.27200
H291        H  0.27847630  0.76638066  0.98255031     0.27200
N292        N  0.79165092  0.26559718  0.98146580    -0.35500
N293        N  0.75493544  0.23778353  0.02545749    -0.56100
N294        N  0.71887133  0.20867082  0.97854516    -0.35500
N295        N  0.75884078  0.23290796  0.93497695    -0.56100
C296        C  0.80863685  0.26560453  0.00618968     0.28000
C297        C  0.81010995  0.26500285  0.95816245     0.28100
C298        C  0.70837303  0.19517506  0.00320698     0.28000
C299        C  0.71101463  0.19169360  0.95508001     0.28000
C300        C  0.76770575  0.26056789  0.04037052     0.36700
C301        C  0.72893606  0.23156304  0.03884364     0.36700
C302        C  0.77533424  0.25182504  0.91844344     0.36700
C303        C  0.73892274  0.22008003  0.91658102     0.36700
C304        C  0.83827599  0.26323665  0.99825657    -0.20800
C305        C  0.83920444  0.26385733  0.96787007    -0.20800
C306        C  0.69318032  0.16945776  0.99536404    -0.20800
C307        C  0.69442970  0.16751650  0.96509199    -0.20800
C308        C  0.74902018  0.26962082  0.06264918    -0.21900
C309        C  0.72494000  0.25047807  0.06234162    -0.21900
C310        C  0.76588791  0.25114363  0.88950022    -0.21900
C311        C  0.74371503  0.23026721  0.88809958    -0.21900
C312        C  0.79723464  0.27045085  0.03500157    -0.17200
C313        C  0.80084839  0.26707507  0.92853734    -0.17200
C314        C  0.71773680  0.19805705  0.92494194    -0.17200
C315        C  0.71100453  0.20650996  0.03229929    -0.17200
H316        H  0.85730862  0.26223240  0.01281078     0.15700
H317        H  0.85890727  0.26281999  0.95446111     0.15700
H318        H  0.68187182  0.15394943  0.00985396     0.15700
H319        H  0.68419003  0.15018647  0.95204605     0.15700
H320        H  0.75274054  0.28744454  0.07812062     0.14000
H321        H  0.70659861  0.25038769  0.07761083     0.14000
H322        H  0.77488964  0.26326099  0.87092290     0.14000
H323        H  0.73286570  0.22344847  0.86802788     0.14000
H324        H  0.76868927  0.26835227  0.98029210     0.27200
H325        H  0.72990659  0.22905118  0.97796432     0.27200
N326        N  0.00719743  0.27252850  0.75832333    -0.35500
N327        N  0.96041608  0.23848341  0.72991814    -0.56100
N328        N  0.00713240  0.20323856  0.70004406    -0.35500
N329        N  0.05342630  0.23494152  0.73088161    -0.56100
C330        C  0.98304956  0.28453486  0.77147666     0.28000
C331        C  0.03174972  0.28274259  0.77246460     0.28100
C332        C  0.98193256  0.18760968  0.69413738     0.28000
C333        C  0.03076510  0.18577691  0.69346687     0.28000
C334        C  0.94350415  0.26038087  0.74115878     0.36700
C335        C  0.94397710  0.22507646  0.70886960     0.36700
C336        C  0.07106782  0.25551018  0.74404942     0.36700
C337        C  0.07106676  0.21857767  0.71318792     0.36700
C338        C  0.99252679  0.30325919  0.79367351    -0.20800
C339        C  0.02284505  0.30194053  0.79440442    -0.20800
C340        C  0.98965765  0.15972680  0.68396425    -0.20800
C341        C  0.02014179  0.15891177  0.68265021    -0.20800
C342        C  0.91584795  0.26018649  0.72776168    -0.21900
C343        C  0.91677317  0.23908423  0.70627556    -0.21900
C344        C  0.10008724  0.25206119  0.73468473    -0.21900
C345        C  0.10020606  0.22839648  0.71585057    -0.21900
C346        C  0.95261164  0.27997702  0.76378231    -0.17200
C347        C  0.06203225  0.27642688  0.76561309    -0.17200
C348        C  0.06146558  0.19419753  0.69549941    -0.17200
C349        C  0.95236241  0.19906758  0.69362897    -0.17200
H350        H  0.97913769  0.31714487  0.80759806     0.15700
H351        H  0.03654776  0.31516851  0.80862027     0.15700
H352        H  0.97478972  0.14229826  0.67661287     0.15700
H353        H  0.03266272  0.14062651  0.67393828     0.15700
H354        H  0.89688950  0.27388465  0.73234316     0.14000
H355        H  0.89890619  0.23422905  0.69106348     0.14000
H356        H  0.11942687  0.26492039  0.74113796     0.14000
H357        H  0.11974230  0.21950011  0.70550142     0.14000
H358        H  0.00719790  0.25875991  0.74027548     0.27200
H359        H  0.00792559  0.22550281  0.70580174     0.27200
N360        N  0.72416318  0.48244969  0.25865472    -0.35500
N361        N  0.75741913  0.43395794  0.22982399    -0.56100
N362        N  0.78982397  0.47793626  0.19758344    -0.35500
N363        N  0.75900558  0.52641164  0.22914398    -0.56100
C364        C  0.71957861  0.45834651  0.27600617     0.28000
C365        C  0.72059919  0.50690924  0.27560641     0.28100
C366        C  0.80651371  0.45327186  0.19340147     0.28000
C367        C  0.80733273  0.50203846  0.19243067     0.28000
C368        C  0.73468756  0.41862655  0.24186640     0.36700
C369        C  0.76958336  0.41601201  0.20954626     0.36700
C370        C  0.73692658  0.54376130  0.23938111     0.36700
C371        C  0.77179174  0.54141098  0.20671878     0.36700
C372        C  0.71332936  0.46748679  0.30426152    -0.20800
C373        C  0.71440395  0.49810570  0.30417358    -0.20800
C374        C  0.83511505  0.46200431  0.18586804    -0.20800
C375        C  0.83553496  0.49272002  0.18492902    -0.20800
C376        C  0.73235819  0.39068492  0.22934441    -0.21900
C377        C  0.75436849  0.38911947  0.20855995    -0.21900
C378        C  0.73536716  0.56978367  0.22299011    -0.21900
C379        C  0.75787195  0.56853491  0.20262420    -0.21900
C380        C  0.71863763  0.42849810  0.26633112    -0.17200
C381        C  0.72042402  0.53672977  0.26498527    -0.17200
C382        C  0.79766011  0.53202573  0.19207588    -0.17200
C383        C  0.79571854  0.42328026  0.19400656    -0.17200
H384        H  0.70856562  0.45351805  0.32298296     0.15700
H385        H  0.71036861  0.51227045  0.32283601     0.15700
H386        H  0.85365568  0.44772418  0.18112137     0.15700
H387        H  0.85437691  0.50661242  0.17912350     0.15700
H388        H  0.71685996  0.37311501  0.23500852     0.14000
H389        H  0.75908892  0.37014651  0.19489562     0.14000
H390        H  0.72020279  0.58805845  0.22590593     0.14000
H391        H  0.76351282  0.58568838  0.18678503     0.14000
H392        H  0.72723726  0.48204848  0.23598519     0.27200
H393        H  0.76710789  0.47854118  0.20158249     0.27200
N394        N  0.29415686  0.48655398  0.70476144    -0.35500
N395        N  0.25970842  0.44113700  0.73709266    -0.56100
N396        N  0.22567030  0.48822539  0.76242181    -0.35500
N397        N  0.26031559  0.53340801  0.72987812    -0.56100
C398        C  0.31153072  0.46214014  0.70260395     0.28000
C399        C  0.31130702  0.51078248  0.69808024     0.28100
C400        C  0.20736423  0.46465805  0.76750423     0.28000
C401        C  0.20919088  0.51296147  0.76568803     0.28000
C402        C  0.27716269  0.42269246  0.72160905     0.36700
C403        C  0.24039086  0.42372622  0.75225365     0.36700
C404        C  0.27564822  0.55034416  0.71049225     0.36700
C405        C  0.24088042  0.55163182  0.74293172     0.36700
C406        C  0.33995388  0.47097950  0.69477271    -0.20800
C407        C  0.33989788  0.50152413  0.69207433    -0.20800
C408        C  0.17898626  0.47470295  0.77339555    -0.20800
C409        C  0.18018852  0.50520608  0.77209980    -0.20800
C410        C  0.26810636  0.39351943  0.72626616    -0.21900
C411        C  0.24656486  0.39406864  0.74719987    -0.21900
C412        C  0.26461170  0.57906039  0.71021138    -0.21900
C413        C  0.24379830  0.58026713  0.73190364    -0.21900
C414        C  0.30195552  0.43184068  0.70461678    -0.17200
C415        C  0.30150241  0.54088469  0.69583157    -0.17200
C416        C  0.21960931  0.54249997  0.76364222    -0.17200
C417        C  0.21556395  0.43428568  0.76806200    -0.17200
H418        H  0.35877725  0.45675977  0.69131354     0.15700
H419        H  0.35873910  0.51533151  0.68606786     0.15700
H420        H  0.15936339  0.46137300  0.77781372     0.15700
H421        H  0.16157607  0.52003807  0.77435593     0.15700
H422        H  0.27595140  0.37348088  0.71609153     0.14000
H423        H  0.23600300  0.37445289  0.75623971     0.14000
H424        H  0.27148535  0.59772602  0.69674203     0.14000
H425        H  0.23163127  0.59990501  0.73790340     0.14000
H426        H  0.27135944  0.48630607  0.70833062     0.27200
H427        H  0.24846545  0.48783792  0.75888744     0.27200
C428        C  0.87300913  0.62781988  0.84859839    -0.01400
N429        N  0.98254403  0.53797040  0.95061776    -0.05000
N430        N  0.97872696  0.55860188  0.93025467    -0.57200
N431        N  0.95701414  0.51711117  0.01579655    -0.04700
N432        N  0.93597434  0.52228610  0.03504718    -0.59300
N433        N  0.97834254  0.53712415  0.01794183    -0.04300
N434        N  0.97214877  0.55661747  0.03846644    -0.57100
N435        N  0.96183393  0.51738953  0.94852925    -0.04000
N436        N  0.94340117  0.52358958  0.92683806    -0.59600
C437        C  0.95453751  0.54907522  0.91525556     0.97100
C438        C  0.94593213  0.54670938  0.04921427     0.96900
N439        N  0.97493370  0.42768704  0.01736219    -0.05200
N440        N  0.96774350  0.40810490  0.03767950    -0.57700
N441        N  0.96015249  0.44780658  0.94851819    -0.03400
N442        N  0.94148129  0.44185315  0.92688686    -0.59000
N443        N  0.98034727  0.42696908  0.95058557    -0.05300
N444        N  0.97598607  0.40652362  0.93039585    -0.58000
N445        N  0.95483909  0.44855149  0.01554111    -0.03000
N446        N  0.93354533  0.44384009  0.03478139    -0.59100
Mn447      Mn  0.95747257  0.48277982  0.98189761     1.18400
C448        C  0.94206244  0.41858315  0.04852507     0.99200
C449        C  0.95208188  0.41640170  0.91537269     0.99900
N450        N  0.04905175  0.53674275  0.02171899    -0.05300
N451        N  0.05696809  0.55861798  0.03935539    -0.61600
N452        N  0.07123692  0.51600440  0.95597293    -0.04100
N453        N  0.09177769  0.52251740  0.93635084    -0.62300
N454        N  0.05037952  0.53622384  0.95522362    -0.04800
N455        N  0.05571973  0.55628635  0.93487134    -0.61900
N456        N  0.06930669  0.51581445  0.02226469    -0.03700
N457        N  0.09131705  0.52293073  0.04012143    -0.62500
Mn458      Mn  0.01498050  0.53784922  0.98670089     1.10700
C459        C  0.08309049  0.54941217  0.05087170     1.00400
C460        C  0.08158807  0.54769938  0.92321619     1.00500
N461        N  0.04880190  0.42497295  0.95679217    -0.04800
N462        N  0.05504998  0.40359884  0.93833964    -0.60200
N463        N  0.06550217  0.44628428  0.02416091    -0.04100
N464        N  0.08425145  0.43976524  0.04552419    -0.56900
N465        N  0.04382617  0.42653248  0.02333715    -0.05400
N466        N  0.04740137  0.40621647  0.04401638    -0.59700
N467        N  0.06995310  0.44522971  0.95705008    -0.04400
N468        N  0.09116293  0.43804177  0.93860101    -0.56900
Mn469      Mn  0.01192716  0.42572613  0.98710618     1.20200
Mn470      Mn  0.06997402  0.48070713  0.98976706     1.10100
Cl471      Cl  0.01364214  0.48179481  0.98643507    -0.84900
C472        C  0.08138996  0.41208261  0.92697467     0.97400
C473        C  0.07233943  0.41507576  0.05810875     0.97200
C474        C  0.87141041  0.33825519  0.12481987    -0.01400
C475        C  0.14978430  0.34338226  0.84007712    -0.01400
C476        C  0.15878800  0.62245827  0.84610888    -0.01400
C477        C  0.86866556  0.34344994  0.84411435    -0.01400
C478        C  0.87185629  0.62135812  0.12592691    -0.01400
N479        N  0.73785028  0.49196511  0.69772796    -0.35500
N480        N  0.76627489  0.53681391  0.73422465    -0.56100
N481        N  0.79360867  0.48859503  0.76838909    -0.35500
N482        N  0.76513683  0.44377052  0.73180965    -0.56100
C483        C  0.73383228  0.51721874  0.68159836     0.28000
C484        C  0.73464451  0.46860062  0.67912556     0.28100
C485        C  0.79899774  0.51245562  0.78582981     0.28000
C486        C  0.79727769  0.46383232  0.78532419     0.28000
C487        C  0.74974429  0.55549310  0.71749998     0.36700
C488        C  0.78149013  0.55390083  0.75356225     0.36700
C489        C  0.74947425  0.42683881  0.71249389     0.36700
C490        C  0.77949280  0.42493845  0.75043815     0.36700
C491        C  0.72846066  0.50982354  0.65257235    -0.20800
C492        C  0.72936286  0.47934215  0.65092637    -0.20800
C493        C  0.80576910  0.50276742  0.81401456    -0.20800
C494        C  0.80431486  0.47227867  0.81379901    -0.20800
C495        C  0.75371846  0.58443261  0.72700118    -0.21900
C496        C  0.77518866  0.58364051  0.74836310    -0.21900
C497        C  0.75301764  0.39710293  0.71987203    -0.21900
C498        C  0.77353734  0.39589843  0.74216179    -0.21900
C499        C  0.73321439  0.54688068  0.69234719    -0.17200
C500        C  0.73439093  0.43775084  0.68690200    -0.17200
C501        C  0.79616721  0.43365762  0.77582265    -0.17200
C502        C  0.79895490  0.54292894  0.77726507    -0.17200
H503        H  0.72435591  0.52491891  0.63440244     0.15700
H504        H  0.72599930  0.46647251  0.63116797     0.15700
H505        H  0.81097467  0.51633843  0.83293236     0.15700
H506        H  0.80832432  0.45788333  0.83252897     0.15700
H507        H  0.74309249  0.60438173  0.71899841     0.14000
H508        H  0.78409904  0.60301411  0.75930741     0.14000
H509        H  0.74289537  0.37782128  0.70982662     0.14000
H510        H  0.78230526  0.37557043  0.75134479     0.14000
H511        H  0.74039532  0.49072677  0.72043470     0.27200
H512        H  0.78967712  0.48927943  0.74587431     0.27200
C513        C  0.15744302  0.63212566  0.12198120    -0.01400
C514        C  0.15744341  0.34089403  0.12403036    -0.01400
N515        N  0.30296583  0.99086041  0.76361649    -0.35500
N516        N  0.27011553  0.94365400  0.73344808    -0.56100
N517        N  0.23769138  0.98936076  0.70079968    -0.35500
N518        N  0.27270852  0.03614912  0.72825959    -0.56100
C519        C  0.31910463  0.96630556  0.77034629     0.28000
C520        C  0.32067029  0.01513036  0.76730913     0.28100
C521        C  0.23219302  0.96405018  0.68550364     0.28000
C522        C  0.23265078  0.01291259  0.68264703     0.28000
C523        C  0.28070569  0.92920913  0.75737377     0.36700
C524        C  0.24550968  0.92864183  0.72472539     0.36700
C525        C  0.28531857  0.05324152  0.74935669     0.36700
C526        C  0.25112822  0.05271988  0.71556608     0.36700
C527        C  0.34759208  0.97499739  0.77825842    -0.20800
C528        C  0.34868344  0.00575416  0.77608842    -0.20800
C529        C  0.22448509  0.97161983  0.65689860    -0.20800
C530        C  0.22394375  0.00230624  0.65533597    -0.20800
C531        C  0.26282288  0.90491771  0.76401838    -0.21900
C532        C  0.24000540  0.90501625  0.74375832    -0.21900
C533        C  0.27138896  0.08058246  0.75031036    -0.21900
C534        C  0.25060125  0.08067612  0.72826206    -0.21900
C535        C  0.30760606  0.93671617  0.77163088    -0.17200
C536        C  0.31098758  0.04534664  0.76570061    -0.17200
C537        C  0.23346226  0.04335658  0.69139748    -0.17200
C538        C  0.23016186  0.93489482  0.69816734    -0.17200
H539        H  0.36552594  0.96071798  0.78532609     0.15700
H540        H  0.36768412  0.01969632  0.78124067     0.15700
H541        H  0.21827917  0.95660292  0.63938768     0.15700
H542        H  0.21729253  0.01501444  0.63623962     0.15700
H543        H  0.26585984  0.88896069  0.78166350     0.14000
H544        H  0.22197018  0.88900264  0.74262552     0.14000
H545        H  0.27629201  0.09904761  0.76469795     0.14000
H546        H  0.23699230  0.09948736  0.72235013     0.14000
H547        H  0.28032285  0.99117509  0.75898333     0.27200
H548        H  0.24199892  0.99055218  0.72325416     0.27200
N549        N  0.51230959  0.71205049  0.26246743    -0.35500
N550        N  0.46890539  0.75062869  0.23574233    -0.56100
N551        N  0.51831336  0.78509366  0.20830931    -0.35500
N552        N  0.56091364  0.74346647  0.23229301    -0.56100
C553        C  0.48654931  0.69654542  0.26604910     0.28000
C554        C  0.53497060  0.69249764  0.26462271     0.28100
C555        C  0.49446531  0.79766429  0.19505291     0.28000
C556        C  0.54296516  0.79386190  0.19335858     0.28000
C557        C  0.45226083  0.73810670  0.25731591     0.36700
C558        C  0.45523780  0.77601872  0.22754144     0.36700
C559        C  0.57696153  0.72552156  0.25003546     0.36700
C560        C  0.58019798  0.76342331  0.22064114     0.36700
C561        C  0.49308526  0.66660213  0.26984969    -0.20800
C562        C  0.52363093  0.66417402  0.26948976    -0.20800
C563        C  0.50421269  0.81542689  0.17198030    -0.20800
C564        C  0.53467480  0.81330884  0.17116468    -0.20800
C565        C  0.42826027  0.75617813  0.26331651    -0.21900
C566        C  0.42963138  0.77968578  0.24374049    -0.21900
C567        C  0.60660694  0.73402320  0.24958663    -0.21900
C568        C  0.60872386  0.75774946  0.23060554    -0.21900
C569        C  0.45792125  0.70953588  0.26961392    -0.17200
C570        C  0.56561236  0.70006651  0.26459795    -0.17200
C571        C  0.57275819  0.78535683  0.19954129    -0.17200
C572        C  0.46431451  0.79451311  0.20393467    -0.17200
H573        H  0.47749847  0.64854930  0.27367878     0.15700
H574        H  0.53612211  0.64393374  0.27270630     0.15700
H575        H  0.49098447  0.82954385  0.15796008     0.15700
H576        H  0.54909475  0.82562911  0.15659693     0.15700
H577        H  0.41119746  0.75256297  0.27962415     0.14000
H578        H  0.41392635  0.79769816  0.24192395     0.14000
H579        H  0.62497273  0.72368597  0.26100397     0.14000
H580        H  0.62900835  0.76934803  0.22474211     0.14000
H581        H  0.51457097  0.73508596  0.26135791     0.27200
H582        H  0.51760689  0.77177578  0.22692769     0.27200
N583        N  0.52285924  0.27375035  0.68847999    -0.35500
N584        N  0.47475854  0.23860441  0.71502856    -0.56100
N585        N  0.51886499  0.20553039  0.74935263    -0.35500
N586        N  0.56728607  0.23963998  0.72198762    -0.56100
C587        C  0.49915289  0.28890738  0.67769181     0.28000
C588        C  0.54779723  0.28903124  0.68081224     0.28100
C589        C  0.49398208  0.18902982  0.75478026     0.28000
C590        C  0.54275363  0.18873572  0.75690769     0.28000
C591        C  0.45790689  0.25728861  0.69867404     0.36700
C592        C  0.45576923  0.22085255  0.73020802     0.36700
C593        C  0.58596088  0.25945757  0.70890836     0.36700
C594        C  0.58362280  0.22348912  0.74136068     0.36700
C595        C  0.50925385  0.31402772  0.66283600    -0.20800
C596        C  0.53974673  0.31408161  0.66473118    -0.20800
C597        C  0.50236671  0.16165291  0.76622617    -0.20800
C598        C  0.53279324  0.16109498  0.76654859    -0.20800
C599        C  0.42812351  0.25092374  0.70320228    -0.21900
C600        C  0.42674782  0.22782184  0.72289631    -0.21900
C601        C  0.61443298  0.25549984  0.71982709    -0.21900
C602        C  0.61267434  0.23390689  0.74120169    -0.21900
C603        C  0.46855785  0.28111229  0.68083151    -0.17200
C604        C  0.57779904  0.28136725  0.68759798    -0.17200
C605        C  0.57323879  0.19804691  0.75735961    -0.17200
C606        C  0.46396796  0.19829543  0.75057466    -0.17200
H607        H  0.49603061  0.33080158  0.65188745     0.15700
H608        H  0.55433113  0.33099905  0.65561019     0.15700
H609        H  0.48845549  0.14349130  0.77362946     0.15700
H610        H  0.54604418  0.14248883  0.77390539     0.15700
H611        H  0.40922675  0.26234566  0.69407361     0.14000
H612        H  0.40658204  0.21754033  0.73107174     0.14000
H613        H  0.63452799  0.26717633  0.71361580     0.14000
H614        H  0.63113005  0.22629437  0.75442157     0.14000
H615        H  0.52216676  0.25375171  0.69977557     0.27200
H616        H  0.51936708  0.22768456  0.74278668     0.27200
C617        C  0.65867877  0.12510471  0.83107866    -0.01400
N618        N  0.55009050  0.93438154  0.94821303    -0.05000
N619        N  0.55550524  0.91487870  0.92741334    -0.57200
N620        N  0.56741945  0.95622908  0.01620532    -0.04700
N621        N  0.58638186  0.95084421  0.03758851    -0.59300
N622        N  0.54667805  0.93559607  0.01554023    -0.04300
N623        N  0.55151509  0.91551058  0.03626313    -0.57100
N624        N  0.57084667  0.95498802  0.94867779    -0.04000
N625        N  0.59061211  0.95008006  0.92811398    -0.59600
C626        C  0.58086710  0.92501774  0.91475196     0.97100
C627        C  0.57635192  0.92538113  0.05020933     0.96900
N628        N  0.55025231  0.04631821  0.01263020    -0.05200
N629        N  0.55650566  0.06763527  0.03130268    -0.57700
N630        N  0.57295620  0.02430380  0.94777208    -0.03400
N631        N  0.59445321  0.02956352  0.92896450    -0.59000
N632        N  0.55297270  0.04538586  0.94634538    -0.05300
N633        N  0.56026308  0.06542709  0.92643289    -0.58000
N634        N  0.57039491  0.02539152  0.01393688    -0.03000
N635        N  0.59099888  0.03201097  0.03347787    -0.59100
Mn636      Mn  0.57128649  0.99007592  0.98170683     1.18400
C637        C  0.58174689  0.05822503  0.04418315     0.99200
C638        C  0.58605607  0.05513027  0.91574961     0.99900
N639        N  0.47705591  0.93822601  0.01128369    -0.05300
N640        N  0.46998611  0.91967219  0.03268510    -0.61600
N641        N  0.46149864  0.95838229  0.94234216    -0.04100
N642        N  0.44218042  0.95259221  0.92130668    -0.62300
N643        N  0.48125028  0.93707762  0.94428991    -0.04800
N644        N  0.47589776  0.91644250  0.92456794    -0.61900
N645        N  0.45731390  0.95949267  0.00921158    -0.03700
N646        N  0.43647073  0.95602789  0.02913514    -0.62500
Mn647      Mn  0.51366610  0.93517165  0.97995210     1.10700
C648        C  0.44474411  0.93121080  0.04367763     1.00400
C649        C  0.45178470  0.92666431  0.91014514     1.00500
N650        N  0.48416651  0.04843940  0.94310209    -0.04800
N651        N  0.47875914  0.07082638  0.92516860    -0.60200
N652        N  0.45964840  0.02826211  0.00847510    -0.04100
N653        N  0.43888611  0.03428518  0.02774738    -0.56900
N654        N  0.48111042  0.04818501  0.00964637    -0.05400
N655        N  0.47547133  0.06835738  0.02966419    -0.59700
N656        N  0.46279766  0.02844504  0.94173495    -0.04400
N657        N  0.44226580  0.03686512  0.92278482    -0.56900
Mn658      Mn  0.51717755  0.04778653  0.97794743     1.20200
Mn659      Mn  0.45939357  0.99351130  0.97519436     1.10100
Cl660      Cl  0.51537501  0.99162856  0.97868499    -0.84900
C661        C  0.45273581  0.06320239  0.91246963     0.97400
C662        C  0.44936667  0.05901339  0.04100714     0.97200
C663        C  0.65637088  0.84603904  0.11873690    -0.01400
C664        C  0.37505334  0.84490884  0.84203797    -0.01400
C665        C  0.37963840  0.13854526  0.83407254    -0.01400
C666        C  0.65525022  0.84496809  0.84189957    -0.01400
C667        C  0.37580896  0.85328537  0.12399514    -0.01400
N668        N  0.51296674  0.70474168  0.69830973    -0.35500
N669        N  0.56053256  0.73161669  0.73389362    -0.56100
N670        N  0.51603480  0.76419814  0.76675953    -0.35500
N671        N  0.46835444  0.73471174  0.73374312    -0.56100
C672        C  0.53665444  0.68841851  0.68987340     0.28000
C673        C  0.48796999  0.69001847  0.68969050     0.28100
C674        C  0.54068709  0.76918318  0.78343404     0.28000
C675        C  0.49184961  0.76991253  0.78350253     0.28000
C676        C  0.57727616  0.71831175  0.71322282     0.36700
C677        C  0.57905583  0.74966274  0.74926649     0.36700
C678        C  0.45041037  0.72332260  0.71262933     0.36700
C679        C  0.45242099  0.75565674  0.74778576     0.36700
C680        C  0.52668165  0.66321135  0.67547824    -0.20800
C681        C  0.49622771  0.66427330  0.67519744    -0.20800
C682        C  0.53179931  0.77830769  0.81110870    -0.20800
C683        C  0.50123787  0.77810140  0.81132944    -0.20800
C684        C  0.60652283  0.72777372  0.71564842    -0.21900
C685        C  0.60778247  0.74698944  0.73880213    -0.21900
C686        C  0.42274211  0.73659767  0.71404028    -0.21900
C687        C  0.42452189  0.75792968  0.73518655    -0.21900
C688        C  0.56714585  0.69611543  0.69350767    -0.17200
C689        C  0.45807393  0.69980177  0.69349763    -0.17200
C690        C  0.46172454  0.77064468  0.77353396    -0.17200
C691        C  0.57078209  0.76729081  0.77362955    -0.17200
H692        H  0.53997798  0.64578661  0.66603664     0.15700
H693        H  0.48209042  0.64745354  0.66559981     0.15700
H694        H  0.54554086  0.78470284  0.82951706     0.15700
H695        H  0.48748540  0.78429216  0.82969401     0.15700
H696        H  0.62526546  0.72100746  0.70258783     0.14000
H697        H  0.62782220  0.75743785  0.74706235     0.14000
H698        H  0.40289084  0.73160106  0.70160588     0.14000
H699        H  0.40667055  0.77253351  0.74129152     0.14000
H700        H  0.51388355  0.72547713  0.70811406     0.27200
H701        H  0.51578185  0.75941971  0.74448489     0.27200
C702        C  0.37050753  0.12814107  0.11865585    -0.01400
C703        C  0.65137221  0.13377506  0.12595402    -0.01400
N704        N  0.01506390  0.70221424  0.19931220    -0.35500
N705        N  0.05923357  0.74307639  0.22328058    -0.56100
N706        N  0.01253726  0.77296351  0.25546476    -0.35500
N707        N  0.96758895  0.73493792  0.22870823    -0.56100
C708        C  0.03901584  0.69475819  0.18289180     0.28000
C709        C  0.99032667  0.69114548  0.18584620     0.28100
C710        C  0.03558665  0.79204797  0.25903918     0.28000
C711        C  0.98739652  0.78835382  0.26038713     0.28000
C712        C  0.07803740  0.72598544  0.20784117     0.36700
C713        C  0.07639365  0.76153849  0.23958758     0.36700
C714        C  0.95288147  0.70984067  0.22097159     0.36700
C715        C  0.95167883  0.74758527  0.25035619     0.36700
C716        C  0.02909238  0.67762947  0.15945489    -0.20800
C717        C  0.99872623  0.67691486  0.16037735    -0.20800
C718        C  0.02520469  0.81992488  0.26623950    -0.20800
C719        C  0.99467818  0.81779908  0.26644871    -0.20800
C720        C  0.10709657  0.73515369  0.21315954    -0.21900
C721        C  0.10610476  0.75646668  0.23424480    -0.21900
C722        C  0.92755431  0.70642705  0.23787350    -0.21900
C723        C  0.92676513  0.73039780  0.25646429    -0.21900
C724        C  0.06947311  0.70273670  0.18850057    -0.17200
C725        C  0.96064820  0.69175613  0.19691143    -0.17200
C726        C  0.95863702  0.77548534  0.26300769    -0.17200
C727        C  0.06578983  0.78436803  0.25773615    -0.17200
H728        H  0.04185620  0.66658904  0.14286104     0.15700
H729        H  0.98465680  0.66622747  0.14425011     0.15700
H730        H  0.03830941  0.83965948  0.27085510     0.15700
H731        H  0.97960923  0.83561644  0.27164489     0.15700
H732        H  0.12727733  0.72767772  0.20295339     0.14000
H733        H  0.12525235  0.76776270  0.24341798     0.14000
H734        H  0.91110559  0.68879222  0.23653627     0.14000
H735        H  0.90962964  0.73481518  0.27233467     0.14000
H736        H  0.01561082  0.71303205  0.21933066     0.27200
H737        H  0.01412482  0.75012835  0.25249294     0.27200
N738        N  0.72842471  0.99155202  0.19957519    -0.35500
N739        N  0.76037520  0.94194252  0.22773915    -0.56100
N740        N  0.79579908  0.98501559  0.26004993    -0.35500
N741        N  0.76352257  0.03466835  0.23184569    -0.56100
C742        C  0.71151904  0.96828324  0.19034833     0.28000
C743        C  0.71343215  0.01685582  0.19297657     0.28100
C744        C  0.81144630  0.95988962  0.26617823     0.28000
C745        C  0.81277862  0.00866432  0.26829106     0.28000
C746        C  0.74208057  0.92592875  0.21014733     0.36700
C747        C  0.77874437  0.92236027  0.24121636     0.36700
C748        C  0.74761009  0.05424051  0.21552016     0.36700
C749        C  0.78179453  0.05092587  0.24919271     0.36700
C750        C  0.68584072  0.97915430  0.17729523    -0.20800
C751        C  0.68652718  0.00940781  0.18002342    -0.20800
C752        C  0.83836093  0.96807680  0.27886209    -0.20800
C753        C  0.83949485  0.99846135  0.27945143    -0.20800
C754        C  0.74890956  0.89596357  0.21253461    -0.21900
C755        C  0.77210401  0.89373008  0.23200516    -0.21900
C756        C  0.75667131  0.08295363  0.22183428    -0.21900
C757        C  0.77632631  0.08095220  0.24457226    -0.21900
C758        C  0.71905790  0.93761268  0.19204663    -0.17200
C759        C  0.72381256  0.04667860  0.19640877    -0.17200
C760        C  0.80496923  0.03934378  0.26719010    -0.17200
C761        C  0.80225600  0.92982019  0.26083971    -0.17200
H762        H  0.66819839  0.96700997  0.16649205     0.15700
H763        H  0.66930834  0.02427744  0.17250534     0.15700
H764        H  0.85612883  0.95411375  0.28652776     0.15700
H765        H  0.85806397  0.01155008  0.28747812     0.15700
H766        H  0.73852349  0.87753139  0.20120948     0.14000
H767        H  0.78313675  0.87332157  0.23821191     0.14000
H768        H  0.74957884  0.10358372  0.21185354     0.14000
H769        H  0.78602584  0.09999348  0.25536909     0.14000
H770        H  0.74975372  0.99016147  0.20803070     0.27200
H771        H  0.77425164  0.98610889  0.25208548     0.27200
N772        N  0.77971207  0.18822258  0.47870394    -0.35500
N773        N  0.75227145  0.22427058  0.43201050    -0.56100
N774        N  0.73045477  0.26468772  0.47631147    -0.35500
N775        N  0.76116323  0.23177369  0.52213548    -0.56100
C776        C  0.79194635  0.17572507  0.45462183     0.28000
C777        C  0.79510203  0.17846659  0.50252335     0.28100
C778        C  0.72658751  0.27979540  0.45069722     0.28000
C779        C  0.73115058  0.28488968  0.49834202     0.28000
C780        C  0.76014334  0.20004067  0.41662050     0.36700
C781        C  0.73050081  0.23785297  0.41653816     0.36700
C782        C  0.77257163  0.21109296  0.54058344     0.36700
C783        C  0.74782450  0.25210111  0.53924448     0.36700
C784        C  0.81446239  0.15673923  0.46344070    -0.20800
C785        C  0.81637909  0.15843536  0.49348814    -0.20800
C786        C  0.72601444  0.31001972  0.45643956    -0.20800
C787        C  0.72748866  0.31312560  0.48641862    -0.20800
C788        C  0.74360841  0.19864468  0.39088255    -0.21900
C789        C  0.72361795  0.22143864  0.39180816    -0.21900
C790        C  0.76676564  0.21849135  0.56946043    -0.21900
C791        C  0.75169737  0.24471110  0.56865896    -0.21900
C792        C  0.78357217  0.18085649  0.42480307    -0.17200
C793        C  0.79076623  0.18718779  0.53219970    -0.17200
C794        C  0.73316444  0.27789211  0.52882217    -0.17200
C795        C  0.71993384  0.26662732  0.42299784    -0.17200
H796        H  0.82808517  0.14289132  0.44968670     0.15700
H797        H  0.83163784  0.14601433  0.50703920     0.15700
H798        H  0.72314233  0.32797078  0.44075927     0.15700
H799        H  0.72553469  0.33404652  0.49762002     0.15700
H800        H  0.74521654  0.18319777  0.37301257     0.14000
H801        H  0.70701161  0.22612121  0.37522140     0.14000
H802        H  0.77354048  0.20672370  0.58916424     0.14000
H803        H  0.74483472  0.25704508  0.58774030     0.14000
H804        H  0.76185259  0.20255162  0.47888694     0.27200
H805        H  0.72988602  0.24166900  0.47887526     0.27200
N806        N  0.22795973  0.77235163  0.48187992    -0.35500
N807        N  0.26029112  0.74067345  0.43561550    -0.56100
N808        N  0.29085711  0.70626995  0.48058641    -0.35500
N809        N  0.25597955  0.73586066  0.52708728    -0.56100
C810        C  0.21585337  0.78530029  0.45764944     0.28000
C811        C  0.21437772  0.78361149  0.50594213     0.28100
C812        C  0.29610403  0.69036666  0.45580736     0.28000
C813        C  0.29415552  0.68767245  0.50400724     0.28000
C814        C  0.24878730  0.76305921  0.41945116     0.36700
C815        C  0.28134269  0.72809776  0.41884850     0.36700
C816        C  0.24224201  0.75538691  0.54497829     0.36700
C817        C  0.27490986  0.71991056  0.54403757     0.36700
C818        C  0.19447706  0.80525789  0.46663556    -0.20800
C819        C  0.19363207  0.80432371  0.49678408    -0.20800
C820        C  0.30207824  0.66123508  0.46369805    -0.20800
C821        C  0.30153774  0.65965402  0.49403788    -0.20800
C822        C  0.26263085  0.76468277  0.39231391    -0.21900
C823        C  0.28328220  0.74252253  0.39194382    -0.21900
C824        C  0.25204411  0.75118312  0.57361397    -0.21900
C825        C  0.27311574  0.72930680  0.57291443    -0.21900
C826        C  0.22462706  0.78091916  0.42781680    -0.17200
C827        C  0.22092011  0.77693378  0.53601319    -0.17200
C828        C  0.29235628  0.69574718  0.53419518    -0.17200
C829        C  0.29675549  0.70204834  0.42655218    -0.17200
H830        H  0.18209913  0.82064249  0.45327954     0.15700
H831        H  0.17984214  0.81818454  0.51033487     0.15700
H832        H  0.30496166  0.64268261  0.44911331     0.15700
H833        H  0.30532888  0.63993982  0.50727661     0.15700
H834        H  0.25812098  0.78009476  0.37450480     0.14000
H835        H  0.29763609  0.73729107  0.37373440     0.14000
H836        H  0.24509478  0.76283379  0.59307969     0.14000
H837        H  0.28529864  0.72099822  0.59174009     0.14000
H838        H  0.24506106  0.75723819  0.48187824     0.27200
H839        H  0.28720232  0.72906837  0.48168221     0.27200
C840        C  0.87009966  0.12762568  0.34168098    -0.01400
N841        N  0.97930529  0.01479109  0.53400037    -0.05000
N842        N  0.97555224  0.03616937  0.55304931    -0.57200
N843        N  0.95689108  0.94730860  0.51472697    -0.04700
N844        N  0.93515145  0.92936735  0.52314523    -0.59300
N845        N  0.97848408  0.94721491  0.53423239    -0.04300
N846        N  0.97214143  0.92904264  0.55612352    -0.57100
N847        N  0.95745938  0.01438044  0.51491026    -0.04000
N848        N  0.93806464  0.03518108  0.52075092    -0.59600
C849        C  0.94973408  0.04869331  0.54458842     0.97100
C850        C  0.94525394  0.91793684  0.54881553     0.96900
N851        N  0.97548176  0.95089230  0.42403618    -0.05200
N852        N  0.96885390  0.93179583  0.40312549    -0.57700
N853        N  0.95532141  0.01689033  0.44755853    -0.03400
N854        N  0.93502825  0.03748308  0.44409712    -0.59000
N855        N  0.97507896  0.01859124  0.42653434    -0.05300
N856        N  0.96824055  0.04009687  0.40793936    -0.58000
N857        N  0.95591033  0.94910577  0.44531738    -0.03000
N858        N  0.93554747  0.92879817  0.43941580    -0.59100
Mn859      Mn  0.95560321  0.98163717  0.48053763     1.18400
C860        C  0.94425174  0.91790549  0.41334537     0.99200
C861        C  0.94325790  0.05190740  0.41933264     0.99900
N862        N  0.04779418  0.94746283  0.53277968    -0.05300
N863        N  0.05427325  0.92844584  0.55382877    -0.61600
N864        N  0.06923006  0.01561874  0.51481284    -0.04100
N865        N  0.09010515  0.03492192  0.52269067    -0.62300
N866        N  0.04805450  0.01488379  0.53455247    -0.04800
N867        N  0.05372295  0.03361216  0.55599633    -0.61900
N868        N  0.06831256  0.94741852  0.51239498    -0.03700
N869        N  0.08915190  0.92803236  0.51942404    -0.62500
Mn870      Mn  0.01340701  0.98103797  0.53432964     1.10700
C871        C  0.07999149  0.91603675  0.54538581     1.00400
C872        C  0.07971057  0.04624754  0.54817949     1.00500
N873        N  0.04561444  0.01942819  0.42478717    -0.04800
N874        N  0.05224734  0.03955238  0.40449641    -0.60200
N875        N  0.06595295  0.95088242  0.44192859    -0.04100
N876        N  0.08515097  0.93032796  0.43447936    -0.56900
N877        N  0.04440544  0.95204794  0.42239987    -0.05400
N878        N  0.04820876  0.93221072  0.40169225    -0.59700
N879        N  0.06652477  0.01854514  0.44510215    -0.04400
N880        N  0.08747551  0.03826645  0.43927978    -0.56900
Mn881      Mn  0.01014181  0.98545889  0.42354718     1.20200
Mn882      Mn  0.06855094  0.98300200  0.47841861     1.10100
Cl883      Cl  0.01203471  0.98267040  0.47916871    -0.84900
C884        C  0.07809962  0.05147776  0.41424717     0.97400
C885        C  0.07362933  0.91864112  0.40945341     0.97200
C886        C  0.87072886  0.84318709  0.33463264    -0.01400
C887        C  0.15241904  0.84491503  0.33770496    -0.01400
C888        C  0.15596507  0.84621199  0.62977647    -0.01400
C889        C  0.87476972  0.12568046  0.61606751    -0.01400
C890        C  0.87489597  0.83611251  0.62346516    -0.01400
N891        N  0.79850475  0.76392599  0.47762703    -0.35500
N892        N  0.76749195  0.72992296  0.43132791    -0.56100
N893        N  0.73050042  0.70171628  0.47589840    -0.35500
N894        N  0.76428627  0.73289512  0.52233737    -0.56100
C895        C  0.81588756  0.76915520  0.45390233     0.28000
C896        C  0.81522355  0.76913849  0.50199348     0.28100
C897        C  0.72279048  0.68517997  0.45201620     0.28000
C898        C  0.72062844  0.68716583  0.50030543     0.28000
C899        C  0.78272770  0.74960793  0.41441131     0.36700
C900        C  0.74855752  0.71528286  0.41315484     0.36700
C901        C  0.77821295  0.75346589  0.53928836     0.36700
C902        C  0.74238007  0.72075359  0.53888326     0.36700
C903        C  0.84394728  0.77786857  0.46315650    -0.20800
C904        C  0.84371035  0.77734373  0.49345097    -0.20800
C905        C  0.70751696  0.66008592  0.46158824    -0.20800
C906        C  0.70603352  0.66139464  0.49163646    -0.20800
C907        C  0.77356166  0.74733966  0.38542569    -0.21900
C908        C  0.75273101  0.72506397  0.38448350    -0.21900
C909        C  0.76476553  0.75473726  0.56648325    -0.21900
C910        C  0.74296626  0.73338668  0.56665218    -0.21900
C911        C  0.80661011  0.76779287  0.42411517    -0.17200
C912        C  0.80473063  0.76878225  0.53153183    -0.17200
C913        C  0.72349401  0.69685866  0.53009446    -0.17200
C914        C  0.72819200  0.69257313  0.42183955    -0.17200
H915        H  0.86267263  0.78385491  0.44946010     0.15700
H916        H  0.86227304  0.78299638  0.50757780     0.15700
H917        H  0.69884375  0.64197657  0.44865945     0.15700
H918        H  0.69581723  0.64459299  0.50533197     0.15700
H919        H  0.78171047  0.75968677  0.36660340     0.14000
H920        H  0.74207181  0.71710792  0.36468965     0.14000
H921        H  0.77079129  0.76862100  0.58488559     0.14000
H922        H  0.72962457  0.72780148  0.58556510     0.14000
H923        H  0.77589866  0.75915605  0.47699224     0.27200
H924        H  0.74081661  0.72240238  0.47563294     0.27200
C925        C  0.16085845  0.12624849  0.34527871    -0.01400
C926        C  0.15221519  0.12529190  0.62499682    -0.01400
N927        N  0.01852173  0.75889278  0.69911819    -0.35500
N928        N  0.97063854  0.72691894  0.73053834    -0.56100
N929        N  0.01512199  0.69953902  0.76925654    -0.35500
N930        N  0.06318278  0.72854086  0.73559640    -0.56100
C931        C  0.99491562  0.76661042  0.68201054     0.28000
C932        C  0.04379569  0.76721606  0.68489032     0.28100
C933        C  0.99020430  0.68661447  0.78039789     0.28000
C934        C  0.03891213  0.68719341  0.78290805     0.28000
C935        C  0.95363770  0.74315733  0.71187220     0.36700
C936        C  0.95190922  0.71314199  0.74963939     0.36700
C937        C  0.08195324  0.74485919  0.71866291     0.36700
C938        C  0.08015041  0.71320715  0.75499970     0.36700
C939        C  0.00559692  0.78040256  0.65675497    -0.20800
C940        C  0.03615053  0.78024688  0.65837207    -0.20800
C941        C  0.99837232  0.66572432  0.80142896    -0.20800
C942        C  0.02879189  0.66653772  0.80345167    -0.20800
C943        C  0.92389515  0.73867201  0.71864509    -0.21900
C944        C  0.92288788  0.72063976  0.74290518    -0.21900
C945        C  0.11100990  0.73960022  0.72713761    -0.21900
C946        C  0.10991230  0.71925704  0.74964170    -0.21900
C947        C  0.96410463  0.76223896  0.68886362    -0.17200
C948        C  0.07362324  0.76403903  0.69518817    -0.17200
C949        C  0.06956424  0.69359067  0.77739706    -0.17200
C950        C  0.96018729  0.69341303  0.77284474    -0.17200
H951        H  0.99299630  0.78915776  0.63848188     0.15700
H952        H  0.05108176  0.78793798  0.64139122     0.15700
H953        H  0.98396540  0.65137072  0.81427720     0.15700
H954        H  0.04186266  0.65307703  0.81835726     0.15700
H955        H  0.90461669  0.74760287  0.70756080     0.14000
H956        H  0.90281590  0.71369857  0.75404307     0.14000
H957        H  0.13106591  0.74899932  0.71779473     0.14000
H958        H  0.12906630  0.71017740  0.76079179     0.14000
H959        H  0.01740089  0.74987995  0.71982103     0.27200
H960        H  0.01587016  0.71598680  0.75371954     0.27200
N961        N  0.73059892  0.98394504  0.75449354    -0.35500
N962        N  0.76407531  0.93593248  0.72684479    -0.56100
N963        N  0.79355502  0.97989794  0.68913530    -0.35500
N964        N  0.76292524  0.02812708  0.71942452    -0.56100
C965        C  0.72736374  0.96090151  0.77364456     0.28000
C966        C  0.72793229  0.00935095  0.77016546     0.28100
C967        C  0.80935614  0.95518650  0.68234378     0.28000
C968        C  0.80865774  0.00410809  0.67874611     0.28000
C969        C  0.74497862  0.91932712  0.74316979     0.36700
C970        C  0.77884931  0.91682447  0.70941058     0.36700
C971        C  0.74303080  0.04608478  0.73244522     0.36700
C972        C  0.77538066  0.04411572  0.69740414     0.36700
C973        C  0.72285519  0.97170323  0.80163107    -0.20800
C974        C  0.72408578  0.00225630  0.79947002    -0.20800
C975        C  0.83433473  0.96395725  0.66665832    -0.20800
C976        C  0.83428028  0.99452341  0.66507153    -0.20800
C977        C  0.74762977  0.88956839  0.73619961    -0.21900
C978        C  0.76953503  0.88788502  0.71547076    -0.21900
C979        C  0.74278236  0.07365035  0.71867958    -0.21900
C980        C  0.76334384  0.07242364  0.69647051    -0.21900
C981        C  0.72756477  0.93032456  0.76643476    -0.17200
C982        C  0.72758905  0.03865621  0.75843707    -0.17200
C983        C  0.79962186  0.03457259  0.68025289    -0.17200
C984        C  0.80166009  0.92489288  0.68921067    -0.17200
H985        H  0.72034450  0.95885143  0.82167216     0.15700
H986        H  0.72442900  0.01750433  0.81760186     0.15700
H987        H  0.85115855  0.94999195  0.65721609     0.15700
H988        H  0.85122596  0.00802231  0.65461000     0.15700
H989        H  0.73599121  0.87084143  0.74596203     0.14000
H990        H  0.77780082  0.86744206  0.70633109     0.14000
H991        H  0.72982975  0.09286409  0.72457952     0.14000
H992        H  0.76932083  0.09051811  0.68178249     0.14000
H993        H  0.73263138  0.98233809  0.73177259     0.27200
H994        H  0.77306569  0.98020079  0.69937324     0.27200
N995        N  0.79734120  0.70269427  0.98803028    -0.35500
N996        N  0.76460863  0.73546436  0.94022626    -0.56100
N997        N  0.73577607  0.76888363  0.98423052    -0.35500
N998        N  0.77167534  0.73994763  0.03143388    -0.56100
C999        C  0.81301282  0.69781183  0.96329860     0.28000
C1000       C  0.81601278  0.69870505  0.01124356     0.28100
C1001       C  0.72982426  0.78479245  0.95935076     0.28000
C1002       C  0.73381113  0.78748683  0.00741149     0.28000
C1003       C  0.77430995  0.71071541  0.92689216     0.36700
C1004       C  0.74051991  0.74483356  0.92497075     0.36700
C1005       C  0.78336517  0.71868347  0.04910696     0.36700
C1006       C  0.74989080  0.75286835  0.04691902     0.36700
C1007       C  0.84203226  0.69165294  0.97076575    -0.20800
C1008       C  0.84380327  0.69106698  0.00096481    -0.20800
C1009       C  0.72478784  0.81418035  0.96696235    -0.20800
C1010       C  0.72684375  0.81574974  0.99725329    -0.20800
C1011       C  0.75639918  0.70409001  0.90297916    -0.21900
C1012       C  0.73438136  0.72526307  0.90228111    -0.21900
C1013       C  0.76940354  0.71866174  0.07614428    -0.21900
C1014       C  0.74737841  0.73938844  0.07429307    -0.21900
C1015       C  0.80094868  0.69631301  0.93456269    -0.17200
C1016       C  0.80755990  0.70068620  0.04116882    -0.17200
C1017       C  0.73439871  0.77842563  0.03748573    -0.17200
C1018       C  0.72626877  0.77224804  0.93065230    -0.17200
H1019       H  0.86029218  0.68950943  0.95590977     0.15700
H1020       H  0.86362196  0.68633776  0.01349993     0.15700
H1021       H  0.71925743  0.83241217  0.95234565     0.15700
H1022       H  0.72300572  0.83530090  0.01040462     0.15700
H1023       H  0.75897288  0.68594005  0.88772323     0.14000
H1024       H  0.71649083  0.72658228  0.88639881     0.14000
H1025       H  0.77429419  0.70527321  0.09533445     0.14000
H1026       H  0.73193230  0.74447619  0.09162236     0.14000
H1027       H  0.77458094  0.70655650  0.98895130     0.27200
H1028       H  0.73837287  0.74590709  0.98579216     0.27200
C1029       C  0.89527075  0.81276381  0.64105742    -0.04300
C1030       C  0.91388215  0.79161509  0.62617479    -0.01400
C1031       C  0.93426949  0.77349569  0.64206657     0.03600
C1032       C  0.94074827  0.77945890  0.67179027    -0.04300
C1033       C  0.92239388  0.79977802  0.68648296    -0.01400
C1034       C  0.89694737  0.81132787  0.67245970     0.03600
C1035       C  0.91350956  0.78841609  0.59452368     0.38300
C1036       C  0.92886479  0.80800242  0.71663310     0.38200
C1037       C  0.87158330  0.81682330  0.69109016     0.36700
C1038       C  0.94887283  0.74893717  0.62767789     0.36700
N1039       N  0.85153322  0.82057554  0.70640179    -0.38200
N1040       N  0.96045133  0.72931628  0.61620795    -0.38200
N1041       N  0.93415911  0.81465427  0.74061105    -0.37600
N1042       N  0.91400678  0.78470657  0.56940675    -0.37600
C1043       C  0.85388710  0.85521517  0.64478753    -0.04300
C1044       C  0.86691565  0.87613390  0.66532740    -0.01400
C1045       C  0.84928968  0.89586200  0.68193586     0.03600
C1046       C  0.81921033  0.90004979  0.67507395    -0.04300
C1047       C  0.80571362  0.88025565  0.65516301    -0.01400
C1048       C  0.82187727  0.85644480  0.64253029     0.03600
C1049       C  0.89861203  0.87789452  0.67078086     0.38300
C1050       C  0.77476632  0.88479763  0.64714578     0.38200
C1051       C  0.80407023  0.83509710  0.62648422     0.36700
C1052       C  0.86232783  0.91242719  0.70617903     0.36700
N1053       N  0.78788169  0.81922105  0.61433446    -0.38200
N1054       N  0.87265537  0.92551177  0.72555623    -0.38200
N1055       N  0.75011463  0.88836832  0.64090320    -0.37600
N1056       N  0.92339382  0.88066089  0.67705114    -0.37600
C1057       C  0.85693448  0.81747971  0.59890264    -0.04300
C1058       C  0.84439090  0.78840567  0.60482849    -0.01400
C1059       C  0.83119544  0.77129189  0.58188830     0.03600
C1060       C  0.82232499  0.78514302  0.55521138    -0.04300
C1061       C  0.83140233  0.81484250  0.55086339    -0.01400
C1062       C  0.85387357  0.82689888  0.56874952     0.03600
C1063       C  0.84414043  0.77548466  0.63409114     0.38300
C1064       C  0.82060208  0.83221460  0.52611240     0.38200
C1065       C  0.87834922  0.83896039  0.55181693     0.36700
C1066       C  0.82731741  0.73943227  0.58576694     0.36700
N1067       N  0.89736128  0.84718381  0.53671907    -0.38200
N1068       N  0.82440129  0.71399010  0.58880586    -0.38200
N1069       N  0.81219604  0.84625146  0.50641402    -0.37600
N1070       N  0.84334027  0.76430464  0.65705024    -0.37600
C1071       C  0.85958748  0.09899269  0.63605835    -0.04300
C1072       C  0.84708145  0.07312613  0.62238586    -0.01400
C1073       C  0.82283188  0.05758986  0.63472242     0.03600
C1074       C  0.81845127  0.05817925  0.66512652    -0.04300
C1075       C  0.83650751  0.07760960  0.68170629    -0.01400
C1076       C  0.85800987  0.09646013  0.66780352     0.03600
C1077       C  0.86534198  0.05456325  0.60398489     0.38300
C1078       C  0.83417893  0.07692371  0.71357580     0.38200
C1079       C  0.88158186  0.10598206  0.68733519     0.36700
C1080       C  0.80520318  0.03776331  0.61650252     0.36700
N1081       N  0.89914229  0.11189959  0.70505596    -0.38200
N1082       N  0.79117078  0.02197599  0.60191762    -0.38200
N1083       N  0.83225471  0.07648819  0.73891022    -0.37600
N1084       N  0.87889047  0.03834290  0.58978026    -0.37600
C1085       C  0.13996285  0.82276227  0.65247326    -0.04300
C1086       C  0.14074562  0.79076803  0.64934816    -0.01400
C1087       C  0.11765671  0.77232841  0.66077009     0.03600
C1088       C  0.09772852  0.78339520  0.68153942    -0.04300
C1089       C  0.10319502  0.81206925  0.69248150    -0.01400
C1090       C  0.12385372  0.83170560  0.67841097     0.03600
C1091       C  0.16666243  0.77531187  0.63870846     0.38300
C1092       C  0.08596772  0.82200068  0.71746619     0.38200
C1093       C  0.12688615  0.86069138  0.69169565     0.36700
C1094       C  0.11532837  0.74135178  0.65223334     0.36700
N1095       N  0.12793649  0.88277459  0.70461887    -0.38200
N1096       N  0.11344273  0.71662536  0.64549734    -0.38200
N1097       N  0.07212318  0.82976431  0.73729336    -0.37600
N1098       N  0.18699342  0.76213388  0.63060309    -0.37600
C1099       C  0.85108290  0.82155149  0.35538103    -0.04300
C1100       C  0.83238581  0.83440657  0.37768207    -0.01400
C1101       C  0.81902199  0.81694601  0.40011316     0.03600
C1102       C  0.82305477  0.78613387  0.40146050    -0.04300
C1103       C  0.84029575  0.77251579  0.37989155    -0.01400
C1104       C  0.85366070  0.78939602  0.35685600     0.03600
C1105       C  0.82492688  0.86570448  0.37792103     0.38300
C1106       C  0.84463223  0.74048471  0.38189460     0.38200
C1107       C  0.87115426  0.77197598  0.33684769     0.36700
C1108       C  0.80025099  0.83081921  0.42195731     0.36700
N1109       N  0.88472322  0.75601574  0.32237906    -0.38200
N1110       N  0.78533058  0.84187615  0.43930909    -0.38200
N1111       N  0.84789071  0.71500798  0.38345389    -0.37600
N1112       N  0.81664808  0.88988995  0.38001999    -0.37600
C1113       C  0.09684462  0.06552814  0.56839808    -0.04300
C1114       C  0.11931520  0.05328462  0.58584858    -0.01400
C1115       C  0.13410942  0.07074243  0.60720617     0.03600
C1116       C  0.13033698  0.10270305  0.60811107    -0.04300
C1117       C  0.10490956  0.11371422  0.59188086    -0.01400
C1118       C  0.08818385  0.09493892  0.57303797     0.03600
C1119       C  0.12592869  0.02174073  0.58304568     0.38300
C1120       C  0.09669718  0.14483329  0.59133732     0.38200
C1121       C  0.06281786  0.10640309  0.55678103     0.36700
C1122       C  0.14910460  0.05355922  0.62974268     0.36700
N1123       N  0.04261155  0.11540216  0.54380444    -0.38200
N1124       N  0.15957878  0.03789761  0.64713152    -0.38200
N1125       N  0.08867951  0.16916854  0.58935021    -0.37600
N1126       N  0.13114034  0.99666776  0.58097691    -0.37600
C1127       C  0.14435247  0.10365962  0.36788774    -0.04300
C1128       C  0.13291723  0.11243117  0.39588351    -0.01400
C1129       C  0.10832689  0.09746588  0.40851021     0.03600
C1130       C  0.09799738  0.07064242  0.39662367    -0.04300
C1131       C  0.11356080  0.05810918  0.37326238    -0.01400
C1132       C  0.13883070  0.07284175  0.36199641     0.03600
C1133       C  0.14914438  0.13196417  0.41551743     0.38300
C1134       C  0.10607094  0.02826030  0.36327162     0.38200
C1135       C  0.16238390  0.05328257  0.35338150     0.36700
C1136       C  0.09424551  0.10911943  0.43464126     0.36700
N1137       N  0.18007421  0.03597891  0.34734474    -0.38200
N1138       N  0.08284311  0.11833988  0.45535846    -0.38200
N1139       N  0.10032634  0.00449682  0.35527594    -0.37600
N1140       N  0.16063861  0.14700854  0.43274892    -0.37600
C1141       C  0.92772135  0.89907697  0.56893806    -0.04300
C1142       C  0.89856619  0.90649019  0.57649132    -0.01400
C1143       C  0.88132272  0.88647616  0.59348955     0.03600
C1144       C  0.89476164  0.86095353  0.60772431    -0.04300
C1145       C  0.92649832  0.85921306  0.60501369    -0.01400
C1146       C  0.94111895  0.87460435  0.58243287     0.03600
C1147       C  0.88597550  0.93439202  0.56621726     0.38300
C1148       C  0.94611302  0.84722287  0.62727432     0.38200
C1149       C  0.96940725  0.86383720  0.57189184     0.36700
C1150       C  0.84952834  0.89134174  0.59265579     0.36700
N1151       N  0.99137891  0.85461063  0.56274052    -0.38200
N1152       N  0.82445516  0.89632266  0.59032041    -0.38200
N1153       N  0.96321525  0.83932264  0.64462234    -0.37600
N1154       N  0.87593285  0.95672736  0.55841815    -0.37600
C1155       C  0.93403594  0.07139042  0.56167361    -0.04300
C1156       C  0.93846875  0.07327336  0.59221838    -0.01400
C1157       C  0.92104707  0.09243797  0.60898829     0.03600
C1158       C  0.89773377  0.10955365  0.59578209    -0.04300
C1159       C  0.89779674  0.11132593  0.56425128    -0.01400
C1160       C  0.91425718  0.09102140  0.54765941     0.03600
C1161       C  0.95979821  0.05423374  0.60728400     0.38300
C1162       C  0.88672505  0.13695269  0.54815776     0.38200
C1163       C  0.91165061  0.09149441  0.51577735     0.36700
C1164       C  0.92945738  0.09506719  0.63957046     0.36700
N1165       N  0.90933143  0.09197736  0.49045225    -0.38200
N1166       N  0.93964508  0.09596998  0.66289455    -0.38200
N1167       N  0.87997214  0.15752464  0.53433166    -0.37600
N1168       N  0.97664878  0.03928386  0.61957188    -0.37600
C1169       C  0.13400261  0.86447100  0.60857712    -0.04300
C1170       C  0.10205152  0.86419074  0.60951108    -0.01400
C1171       C  0.08491223  0.88138215  0.58941505     0.03600
C1172       C  0.09817710  0.89641288  0.56537318    -0.04300
C1173       C  0.12927888  0.89587684  0.56317836    -0.01400
C1174       C  0.14666005  0.88320640  0.58587564     0.03600
C1175       C  0.08488686  0.84995252  0.63228027     0.38300
C1176       C  0.14420738  0.91090945  0.53891221     0.38200
C1177       C  0.17685113  0.89444964  0.58752603     0.36700
C1178       C  0.05344013  0.88529427  0.59540029     0.36700
N1179       N  0.19967537  0.90645449  0.58738543    -0.38200
N1180       N  0.02889080  0.88912853  0.60157445    -0.38200
N1181       N  0.15640904  0.92282257  0.51979081    -0.37600
N1182       N  0.06759138  0.84124500  0.64900095    -0.37600
C1183       C  0.08837566  0.89544076  0.39166405    -0.04300
C1184       C  0.10762820  0.87531258  0.40540410    -0.01400
C1185       C  0.12458142  0.85566215  0.38857554     0.03600
C1186       C  0.12689492  0.85930641  0.35716506    -0.04300
C1187       C  0.10333546  0.87627580  0.34372283    -0.01400
C1188       C  0.08394238  0.89344647  0.36100304     0.03600
C1189       C  0.10880063  0.87335958  0.43736169     0.38300
C1190       C  0.10075082  0.88027881  0.31209981     0.38200
C1191       C  0.06093141  0.91075716  0.34649559     0.36700
C1192       C  0.13521995  0.82995960  0.40462384     0.36700
N1193       N  0.04264767  0.92426012  0.33459375    -0.38200
N1194       N  0.14182866  0.80960653  0.41881094    -0.38200
N1195       N  0.09789753  0.88537829  0.28729072    -0.37600
N1196       N  0.10986556  0.87169894  0.46272325    -0.37600
C1197       C  0.92480013  0.89944269  0.39496184    -0.04300
C1198       C  0.92162090  0.86903308  0.40068290    -0.01400
C1199       C  0.90413068  0.85112180  0.38188685     0.03600
C1200       C  0.88746757  0.86408634  0.35772377    -0.04300
C1201       C  0.88708550  0.89619818  0.35676997    -0.01400
C1202       C  0.90787744  0.91298471  0.37291405     0.03600
C1203       C  0.93837096  0.85582735  0.42477090     0.38300
C1204       C  0.86331279  0.91354434  0.34400533     0.38200
C1205       C  0.91086145  0.94490922  0.36775689     0.36700
C1206       C  0.90678773  0.81921809  0.38631877     0.36700
N1207       N  0.91332423  0.97022717  0.36351541    -0.38200
N1208       N  0.91047500  0.79412531  0.39076567    -0.38200
N1209       N  0.84435954  0.92870441  0.33573299    -0.37600
N1210       N  0.95178885  0.84537997  0.44390531    -0.37600
C1211       C  0.89009229  0.11273585  0.36690540    -0.04300
C1212       C  0.92194931  0.11622456  0.36918608    -0.01400
C1213       C  0.93907189  0.09611373  0.38586283     0.03600
C1214       C  0.92528452  0.07531660  0.40453567    -0.04300
C1215       C  0.89426546  0.07671512  0.40841294    -0.01400
C1216       C  0.87676783  0.09504674  0.38995100     0.03600
C1217       C  0.93818652  0.14220586  0.35885375     0.38300
C1218       C  0.87949913  0.05714630  0.42946242     0.38200
C1219       C  0.84484649  0.09188111  0.39331096     0.36700
C1220       C  0.97137056  0.09804136  0.38477336     0.36700
N1221       N  0.81983996  0.08727588  0.39711021    -0.38200
N1222       N  0.99699981  0.09972613  0.38371292    -0.38200
N1223       N  0.86746368  0.04161853  0.44602559    -0.37600
N1224       N  0.95240694  0.16280335  0.35250243    -0.37600
C1225       C  0.20843310  0.79681031  0.40335347    -0.04300
C1226       C  0.21073597  0.82777922  0.40040775    -0.01400
C1227       C  0.19331256  0.84308099  0.37938820     0.03600
C1228       C  0.17506820  0.82725053  0.35833469    -0.04300
C1229       C  0.17935332  0.79564226  0.35748931    -0.01400
C1230       C  0.19328917  0.78068607  0.38126117     0.03600
C1231       C  0.23119746  0.84399247  0.41936941     0.38300
C1232       C  0.17272397  0.77815681  0.33152822     0.38200
C1233       C  0.19233969  0.74839697  0.38272279     0.36700
C1234       C  0.19441337  0.87524741  0.38098142     0.36700
N1235       N  0.19162888  0.72266683  0.38382266    -0.38200
N1236       N  0.19728128  0.90066378  0.38387981    -0.38200
N1237       N  0.16810786  0.76384002  0.31092979    -0.37600
N1238       N  0.24758041  0.85678017  0.43443522    -0.37600
C1239       C  0.20517054  0.79463679  0.55959273    -0.04300
C1240       C  0.22046293  0.81642175  0.57576884    -0.01400
C1241       C  0.20638202  0.83254378  0.59865777     0.03600
C1242       C  0.17504968  0.82850410  0.60523860    -0.04300
C1243       C  0.15951145  0.80835886  0.58550067    -0.01400
C1244       C  0.17474322  0.79053234  0.56486790     0.03600
C1245       C  0.25127665  0.82268503  0.56813314     0.38300
C1246       C  0.12755246  0.80381823  0.58700872     0.38200
C1247       C  0.15896969  0.76722526  0.54907494     0.36700
C1248       C  0.22543828  0.85454386  0.61227135     0.36700
N1249       N  0.14649597  0.74856237  0.53656896    -0.38200
N1250       N  0.24260974  0.87175918  0.62086337    -0.38200
N1251       N  0.10226284  0.79909415  0.58772691    -0.37600
N1252       N  0.27575764  0.82763523  0.56209288    -0.37600
C1253       C  0.84554070  0.14609480  0.35907512    -0.04300
C1254       C  0.85433893  0.16699198  0.38148156    -0.01400
C1255       C  0.83322757  0.18052411  0.39988367     0.03600
C1256       C  0.80390613  0.16967090  0.40118604    -0.04300
C1257       C  0.79488112  0.14829140  0.38069243    -0.01400
C1258       C  0.81393994  0.14009481  0.35745405     0.03600
C1259       C  0.88482855  0.17627607  0.38621130     0.38300
C1260       C  0.76664535  0.13289953  0.38463844     0.38200
C1261       C  0.79919457  0.12590486  0.33293338     0.36700
C1262       C  0.84214575  0.20502263  0.41885467     0.36700
N1263       N  0.78537401  0.11519003  0.31423776    -0.38200
N1264       N  0.84924544  0.22437294  0.43405856    -0.38200
N1265       N  0.74419879  0.12059366  0.38776397    -0.37600
N1266       N  0.90794807  0.18596473  0.39212149    -0.37600
C1267       C  0.80924618  0.17276339  0.55592667    -0.04300
C1268       C  0.83167332  0.18890966  0.57018283    -0.01400
C1269       C  0.84925236  0.17555503  0.59257925     0.03600
C1270       C  0.84961121  0.14317730  0.59690387    -0.04300
C1271       C  0.82773803  0.12756612  0.57896932    -0.01400
C1272       C  0.80534929  0.14283627  0.56317875     0.03600
C1273       C  0.83739234  0.21954079  0.56079393     0.38300
C1274       C  0.83155413  0.09785276  0.56786157     0.38200
C1275       C  0.78009595  0.12680695  0.55076328     0.36700
C1276       C  0.86730898  0.19710394  0.60829820     0.36700
N1277       N  0.76001043  0.11417088  0.54077633    -0.38200
N1278       N  0.88056060  0.21599517  0.61972458    -0.38200
N1279       N  0.83260767  0.07534789  0.55568895    -0.37600
N1280       N  0.84196667  0.24377802  0.55321710    -0.37600
C1281       C  0.81876655  0.90453845  0.27594275    -0.04300
C1282       C  0.80411681  0.88534777  0.29594386    -0.01400
C1283       C  0.81959592  0.86199824  0.31023961     0.03600
C1284       C  0.85148924  0.86227660  0.31156468    -0.04300
C1285       C  0.86572841  0.88083897  0.28959620    -0.01400
C1286       C  0.84893543  0.89916004  0.27030942     0.03600
C1287       C  0.77283901  0.88949572  0.30202077     0.38300
C1288       C  0.89773286  0.88361236  0.28742098     0.38200
C1289       C  0.86311196  0.91373491  0.24540246     0.36700
C1290       C  0.80182564  0.83686410  0.32019050     0.36700
N1291       N  0.87446444  0.92554057  0.22572181    -0.38200
N1292       N  0.78716985  0.81683870  0.32737616    -0.38200
N1293       N  0.92300893  0.88724812  0.28450448    -0.37600
N1294       N  0.74791912  0.89279105  0.30698244    -0.37600
C1295       C  0.82347711  0.06073815  0.28517406    -0.04300
C1296       C  0.82788787  0.05606569  0.31553412    -0.01400
C1297       C  0.84986280  0.07276471  0.33000176     0.03600
C1298       C  0.85525186  0.10293316  0.32101256    -0.04300
C1299       C  0.84709505  0.10911076  0.29085287    -0.01400
C1300       C  0.83767317  0.08571974  0.27246983     0.03600
C1301       C  0.81299592  0.03217480  0.33131225     0.38300
C1302       C  0.84557387  0.13886022  0.27842036     0.38200
C1303       C  0.84207489  0.08787439  0.24097218     0.36700
C1304       C  0.87299137  0.05458348  0.34276287     0.36700
N1305       N  0.84578637  0.08959269  0.21588543    -0.38200
N1306       N  0.89128671  0.03902780  0.35180279    -0.38200
N1307       N  0.84364142  0.16217517  0.26765986    -0.37600
N1308       N  0.80118388  0.01309102  0.34396799    -0.37600
C1309       C  0.13375906  0.82480256  0.31484197    -0.04300
C1310       C  0.13291663  0.82996958  0.28338997    -0.01400
C1311       C  0.10889797  0.81956790  0.26582516     0.03600
C1312       C  0.08755001  0.80011041  0.27736966    -0.04300
C1313       C  0.08934268  0.79184530  0.30696177    -0.01400
C1314       C  0.11166753  0.80383632  0.32550924     0.03600
C1315       C  0.15542233  0.84596552  0.26720556     0.38300
C1316       C  0.06814095  0.77000173  0.31828542     0.38200
C1317       C  0.11215014  0.79141169  0.35486882     0.36700
C1318       C  0.10579808  0.82900261  0.23530696     0.36700
N1319       N  0.11069318  0.77805943  0.37663381    -0.38200
N1320       N  0.10313756  0.83650973  0.21108262    -0.38200
N1321       N  0.05142412  0.75252305  0.32724238    -0.37600
N1322       N  0.17187632  0.85814509  0.25177286    -0.37600
C1323       C  0.93575053  0.79148996  0.28097838    -0.04300
C1324       C  0.90755585  0.79875087  0.26956747    -0.01400
C1325       C  0.88589564  0.81166462  0.28791300     0.03600
C1326       C  0.89436851  0.82571893  0.31514292    -0.04300
C1327       C  0.92559770  0.82399966  0.32183608    -0.01400
C1328       C  0.94291283  0.80174305  0.30923389     0.03600
C1329       C  0.90100509  0.79442578  0.23874174     0.38300
C1330       C  0.94303608  0.84852312  0.33346621     0.38200
C1331       C  0.96960733  0.79201586  0.32433646     0.36700
C1332       C  0.85522188  0.80850587  0.27858198     0.36700
N1333       N  0.99081477  0.78440508  0.33657892    -0.38200
N1334       N  0.83121529  0.80481753  0.27012756    -0.38200
N1335       N  0.95820790  0.86770924  0.34162697    -0.37600
N1336       N  0.89557543  0.79212278  0.21402310    -0.37600
C1337       C  0.70841400  0.07084103  0.17867177    -0.04300
C1338       C  0.70429974  0.06737960  0.14821218    -0.01400
C1339       C  0.68060834  0.08226468  0.13464234     0.03600
C1340       C  0.67298575  0.11178820  0.14396501    -0.04300
C1341       C  0.68370822  0.11883025  0.17314702    -0.01400
C1342       C  0.69545454  0.09614304  0.19147875     0.03600
C1343       C  0.71996364  0.04467738  0.13207087     0.38300
C1344       C  0.68357641  0.14863140  0.18515717     0.38200
C1345       C  0.69275513  0.09862778  0.22310661     0.36700
C1346       C  0.65938660  0.06181767  0.12158587     0.36700
N1347       N  0.69053732  0.10073672  0.24831753    -0.38200
N1348       N  0.64297909  0.04430628  0.11217987    -0.38200
N1349       N  0.68432544  0.17200839  0.19565620    -0.37600
N1350       N  0.73232312  0.02650522  0.11917662    -0.37600
C1351       C  0.67598632  0.86698827  0.82194093    -0.04300
C1352       C  0.70812940  0.87000798  0.82408919    -0.01400
C1353       C  0.72449018  0.88951222  0.80525155     0.03600
C1354       C  0.71014807  0.90875847  0.78555699    -0.04300
C1355       C  0.67907535  0.90844260  0.78451765    -0.01400
C1356       C  0.66220307  0.88822953  0.80200927     0.03600
C1357       C  0.72578762  0.85758215  0.84773474     0.38300
C1358       C  0.66426968  0.92893267  0.76446571     0.38200
C1359       C  0.63034257  0.88953474  0.79749520     0.36700
C1360       C  0.75674349  0.89106101  0.80714143     0.36700
N1361       N  0.60544698  0.89237386  0.79185904    -0.38200
N1362       N  0.78238190  0.89225995  0.80852464    -0.38200
N1363       N  0.65260308  0.94530690  0.74853602    -0.37600
N1364       N  0.74149976  0.84983748  0.86643191    -0.37600
C1365       C  0.67328917  0.82512161  0.86569864    -0.04300
C1366       C  0.66686641  0.82360139  0.89689114    -0.01400
C1367       C  0.68069347  0.80212664  0.91533246     0.03600
C1368       C  0.70715216  0.78807492  0.90719483    -0.04300
C1369       C  0.71434745  0.78965941  0.87689225    -0.01400
C1370       C  0.69488878  0.80381271  0.85629616     0.03600
C1371       C  0.64363384  0.84022591  0.91127933     0.38300
C1372       C  0.74274398  0.77905902  0.86653927     0.38200
C1373       C  0.69961169  0.79798767  0.82539256     0.36700
C1374       C  0.66550022  0.79236006  0.94173941     0.36700
N1375       N  0.70427061  0.79226540  0.80112210    -0.38200
N1376       N  0.65190242  0.78490479  0.96195931    -0.38200
N1377       N  0.76537162  0.77086714  0.85794523    -0.37600
N1378       N  0.62524849  0.85200935  0.92441840    -0.37600
C1379       C  0.63709250  0.82081204  0.82252486    -0.04300
C1380       C  0.63549694  0.82123487  0.79089256    -0.01400
C1381       C  0.61153377  0.80712348  0.77601484     0.03600
C1382       C  0.59511609  0.78415739  0.78982661    -0.04300
C1383       C  0.60306943  0.77658428  0.81869434    -0.01400
C1384       C  0.62019065  0.79666990  0.83590352     0.03600
C1385       C  0.65939587  0.83203321  0.77240392     0.38300
C1386       C  0.59267017  0.74848602  0.83106092     0.38200
C1387       C  0.61631822  0.79301920  0.86720437     0.36700
C1388       C  0.60441875  0.81582973  0.74605501     0.36700
N1389       N  0.61077294  0.78800044  0.89154306    -0.38200
N1390       N  0.59871360  0.82266741  0.72215136    -0.38200
N1391       N  0.58455795  0.72601035  0.84078839    -0.37600
N1392       N  0.67818922  0.83986952  0.75683139    -0.37600
C1393       C  0.39795037  0.82509141  0.82342460    -0.04300
C1394       C  0.42897307  0.83234268  0.81967148    -0.01400
C1395       C  0.44561825  0.81849964  0.79777185     0.03600
C1396       C  0.43919697  0.78883727  0.79043219    -0.04300
C1397       C  0.41144002  0.77714090  0.79978171    -0.01400
C1398       C  0.38967077  0.79629219  0.81188025     0.03600
C1399       C  0.44753010  0.84428059  0.84290102     0.38300
C1400       C  0.40513975  0.74553264  0.79731589     0.38200
C1401       C  0.35916548  0.78563548  0.81191742     0.36700
C1402       C  0.47130514  0.83388294  0.78568307     0.36700
N1403       N  0.33507117  0.77649031  0.81156631    -0.38200
N1404       N  0.49182230  0.84607267  0.77603922    -0.38200
N1405       N  0.40007142  0.72032571  0.79543393    -0.37600
N1406       N  0.46352664  0.85259503  0.86109858    -0.37600
C1407       C  0.71482958  0.79435904  0.05899067    -0.04300
C1408       C  0.68469910  0.79739872  0.05231006    -0.01400
C1409       C  0.66659234  0.81623369  0.06901168     0.03600
C1410       C  0.67626458  0.82641149  0.09772234    -0.04300
C1411       C  0.70390983  0.81446648  0.10764022    -0.01400
C1412       C  0.72457773  0.80343130  0.08706571     0.03600
C1413       C  0.67130372  0.77694491  0.03141985     0.38300
C1414       C  0.71270675  0.81515837  0.13825036     0.38200
C1415       C  0.75585209  0.80219810  0.09478211     0.36700
C1416       C  0.63724684  0.82104065  0.05665005     0.36700
N1417       N  0.78079114  0.80140560  0.10093080    -0.38200
N1418       N  0.61452270  0.82405352  0.04506624    -0.38200
N1419       N  0.72120666  0.81497162  0.16225530    -0.37600
N1420       N  0.66066977  0.75917479  0.01634171    -0.37600
C1421       C  0.67364129  0.87321108  0.13471283    -0.04300
C1422       C  0.65751489  0.89179931  0.15480126    -0.01400
C1423       C  0.67265394  0.90976796  0.17547705     0.03600
C1424       C  0.70291782  0.91636665  0.17198616    -0.04300
C1425       C  0.71797939  0.90412759  0.14809805    -0.01400
C1426       C  0.70402993  0.88280011  0.12967594     0.03600
C1427       C  0.62529163  0.89144344  0.15637749     0.38300
C1428       C  0.74845358  0.91375467  0.14254077     0.38200
C1429       C  0.72169909  0.87438504  0.10465788     0.36700
C1430       C  0.65719096  0.92043899  0.20123872     0.36700
N1431       N  0.73785806  0.86941722  0.08563353    -0.38200
N1432       N  0.64489132  0.92888768  0.22177594    -0.38200
N1433       N  0.77266809  0.92134975  0.13824627    -0.37600
N1434       N  0.59969433  0.89172357  0.15844956    -0.37600
C1435       C  0.59900914  0.07675224  0.06432218    -0.04300
C1436       C  0.58529396  0.08781054  0.08916929    -0.01400
C1437       C  0.59982195  0.10930566  0.10637631     0.03600
C1438       C  0.63133390  0.11502496  0.10341884    -0.04300
C1439       C  0.64461307  0.10308739  0.07705971    -0.01400
C1440       C  0.62787764  0.08575628  0.05720490     0.03600
C1441       C  0.55527361  0.07772504  0.09649036     0.38300
C1442       C  0.67618438  0.10536220  0.07088027     0.38200
C1443       C  0.64045763  0.07700276  0.02923291     0.36700
C1444       C  0.57946346  0.12640058  0.12344726     0.36700
N1445       N  0.65021293  0.07017295  0.00682651    -0.38200
N1446       N  0.56030914  0.13746519  0.13591542    -0.38200
N1447       N  0.70119627  0.10585497  0.06517597    -0.37600
N1448       N  0.53148786  0.06992206  0.10243942    -0.37600
C1449       C  0.43117249  0.07734301  0.06022904    -0.04300
C1450       C  0.41263577  0.09870333  0.04783959    -0.01400
C1451       C  0.39440889  0.11632204  0.06576078     0.03600
C1452       C  0.39246500  0.11114420  0.09712126    -0.04300
C1453       C  0.41295157  0.08926270  0.10885002    -0.01400
C1454       C  0.43216770  0.07321581  0.09047699     0.03600
C1455       C  0.41346734  0.10338938  0.01610096     0.38300
C1456       C  0.41302314  0.07924070  0.13907413     0.38200
C1457       C  0.45231032  0.05100794  0.10255068     0.36700
C1458       C  0.38242621  0.14180141  0.05061285     0.36700
N1459       N  0.46821192  0.03325931  0.11207215    -0.38200
N1460       N  0.37671788  0.16229244  0.03627617    -0.38200
N1461       N  0.41541643  0.06781927  0.16180393    -0.37600
N1462       N  0.41440559  0.10730275  0.99097895    -0.37600
C1463       C  0.42629049  0.91556396  0.06556831    -0.04300
C1464       C  0.39574016  0.91112821  0.06075749    -0.01400
C1465       C  0.37931032  0.89227197  0.07965636     0.03600
C1466       C  0.39398975  0.87506433  0.10257465    -0.04300
C1467       C  0.42584328  0.87701620  0.10268674    -0.01400
C1468       C  0.44031353  0.90067052  0.08867247     0.03600
C1469       C  0.38108299  0.92545712  0.03598300     0.38300
C1470       C  0.44463560  0.85148855  0.10797761     0.38200
C1471       C  0.47018096  0.90905863  0.09758633     0.36700
C1472       C  0.34735164  0.89063699  0.07442668     0.36700
N1473       N  0.49358219  0.91663605  0.10516942    -0.38200
N1474       N  0.32201552  0.88979911  0.07006895    -0.38200
N1475       N  0.46007208  0.83118532  0.11059336    -0.37600
N1476       N  0.36932891  0.93677116  0.01625621    -0.37600
C1477       C  0.59809015  0.90833522  0.89210447    -0.04300
C1478       C  0.58452993  0.88579012  0.87526312    -0.01400
C1479       C  0.60160882  0.86725912  0.85684156     0.03600
C1480       C  0.63372960  0.86790464  0.85791439    -0.04300
C1481       C  0.64651590  0.89250487  0.87398988    -0.01400
C1482       C  0.62874575  0.91347343  0.88855482     0.03600
C1483       C  0.55235778  0.88236112  0.87565575     0.38300
C1484       C  0.67812950  0.89569961  0.87928529     0.38200
C1485       C  0.64293686  0.93976516  0.90104478     0.36700
C1486       C  0.58438642  0.85058394  0.83556850     0.36700
N1487       N  0.65455593  0.96062729  0.91066878    -0.38200
N1488       N  0.56870941  0.83933172  0.81870233    -0.38200
N1489       N  0.70249178  0.90078484  0.88581502    -0.37600
N1490       N  0.52681235  0.87941512  0.87585790    -0.37600
C1491       C  0.43524922  0.08421456  0.89455195    -0.04300
C1492       C  0.44890766  0.10030518  0.87185397    -0.01400
C1493       C  0.43272434  0.12129788  0.85536063     0.03600
C1494       C  0.40074348  0.12246657  0.85740681    -0.04300
C1495       C  0.38805004  0.10787445  0.88291444    -0.01400
C1496       C  0.40550124  0.08977624  0.90148418     0.03600
C1497       C  0.48001503  0.09511235  0.86519733     0.38300
C1498       C  0.35637373  0.10742301  0.88884034     0.38200
C1499       C  0.39222988  0.07564725  0.92717583     0.36700
C1500       C  0.45088347  0.14297847  0.83981673     0.36700
N1501       N  0.38155073  0.06429102  0.94747180    -0.38200
N1502       N  0.46681311  0.15994414  0.82873051    -0.38200
N1503       N  0.33143362  0.10547384  0.89462069    -0.37600
N1504       N  0.50470689  0.09094270  0.85982784    -0.37600
C1505       C  0.43226253  0.90706531  0.89312352    -0.04300
C1506       C  0.41761998  0.88374169  0.90764981    -0.01400
C1507       C  0.39582570  0.86693779  0.89298221     0.03600
C1508       C  0.39323554  0.86828663  0.86135435    -0.04300
C1509       C  0.40843821  0.89307487  0.84720879    -0.01400
C1510       C  0.42667090  0.91271354  0.86344874     0.03600
C1511       C  0.42420463  0.87764140  0.93850776     0.38300
C1512       C  0.40840647  0.89750147  0.81555869     0.38200
C1513       C  0.44183611  0.93748861  0.84910920     0.36700
C1514       C  0.37455988  0.85273387  0.91245719     0.36700
N1515       N  0.45405968  0.95712876  0.83772672    -0.38200
N1516       N  0.35830439  0.84307343  0.92974854    -0.38200
N1517       N  0.40958214  0.90186562  0.79050385    -0.37600
N1518       N  0.42960451  0.87250625  0.96289020    -0.37600
C1519       C  0.59469431  0.90664575  0.07065608    -0.04300
C1520       C  0.58270777  0.88097314  0.08447125    -0.01400
C1521       C  0.60137156  0.86018220  0.09917419     0.03600
C1522       C  0.63304162  0.86399538  0.09926032    -0.04300
C1523       C  0.64394403  0.88753827  0.08082101    -0.01400
C1524       C  0.62570043  0.91088905  0.07166723     0.03600
C1525       C  0.55110499  0.87451298  0.08221959     0.38300
C1526       C  0.67104274  0.88462695  0.06421676     0.38200
C1527       C  0.63992467  0.93798097  0.06083764     0.36700
C1528       C  0.58730264  0.83220325  0.10653839     0.36700
N1529       N  0.65158578  0.95942249  0.05239720    -0.38200
N1530       N  0.57349639  0.81051112  0.10901248    -0.38200
N1531       N  0.69078985  0.88307859  0.04814728    -0.37600
N1532       N  0.52628999  0.86803343  0.08003835    -0.37600
C1533       C  0.67793330  0.10513140  0.80901531    -0.04300
C1534       C  0.70990944  0.10619282  0.80685468    -0.01400
C1535       C  0.72573017  0.08373684  0.79183536     0.03600
C1536       C  0.71077369  0.06256831  0.77452926    -0.04300
C1537       C  0.67977267  0.06479304  0.77147195    -0.01400
C1538       C  0.66340876  0.08544620  0.78840179     0.03600
C1539       C  0.72737718  0.13159149  0.81654814     0.38300
C1540       C  0.66449373  0.04475362  0.75148207     0.38200
C1541       C  0.63129472  0.08408411  0.78587969     0.36700
C1542       C  0.75785519  0.08246826  0.79403167     0.36700
N1543       N  0.60579398  0.08217798  0.78319789    -0.38200
N1544       N  0.78344673  0.08129539  0.79586154    -0.38200
N1545       N  0.65245712  0.02873982  0.73548950    -0.37600
N1546       N  0.74190838  0.15166244  0.82372383    -0.37600
C1547       C  0.64114585  0.10527185  0.85483543    -0.04300
C1548       C  0.62602213  0.11934410  0.87910210    -0.01400
C1549       C  0.61025184  0.10242449  0.90006435     0.03600
C1550       C  0.60510488  0.07206132  0.89553637    -0.04300
C1551       C  0.61960195  0.05751177  0.87289598    -0.01400
C1552       C  0.64005939  0.07314044  0.85526585     0.03600
C1553       C  0.62282708  0.15133340  0.88183673     0.38300
C1554       C  0.61434001  0.02577814  0.86836485     0.38200
C1555       C  0.66165327  0.05418237  0.84203406     0.36700
C1556       C  0.59931207  0.11643691  0.92660732     0.36700
N1557       N  0.67781098  0.03675156  0.83301840    -0.38200
N1558       N  0.59083174  0.12742014  0.94786227    -0.38200
N1559       N  0.61030776  0.00059734  0.86473049    -0.37600
N1560       N  0.61816181  0.17639055  0.88503939    -0.37600
C1561       C  0.39867954  0.15561579  0.80931930    -0.04300
C1562       C  0.40035630  0.18745896  0.80593687    -0.01400
C1563       C  0.42337923  0.20079564  0.78914373     0.03600
C1564       C  0.43957655  0.18391570  0.76877241    -0.04300
C1565       C  0.43171974  0.15383406  0.76549083    -0.01400
C1566       C  0.41478306  0.13911036  0.78741505     0.03600
C1567       C  0.37745587  0.20726903  0.81623352     0.38300
C1568       C  0.44127133  0.13791920  0.73959638     0.38200
C1569       C  0.41632962  0.10689178  0.78775856     0.36700
C1570       C  0.42985581  0.23231867  0.79240153     0.36700
N1571       N  0.41872467  0.08129654  0.78699765    -0.38200
N1572       N  0.43504564  0.25744484  0.79485910    -0.38200
N1573       N  0.44861990  0.12527720  0.71884142    -0.37600
N1574       N  0.35941684  0.22371916  0.82377032    -0.37600
C1575       C  0.59521637  0.17958133  0.77539279    -0.04300
C1576       C  0.58900129  0.17154518  0.80472739    -0.01400
C1577       C  0.60488842  0.14820860  0.81810490     0.03600
C1578       C  0.63550347  0.14335705  0.81071079    -0.04300
C1579       C  0.64344530  0.15507005  0.78213139    -0.01400
C1580       C  0.62170649  0.16820181  0.76343014     0.03600
C1581       C  0.56461013  0.18486590  0.82049597     0.38300
C1582       C  0.67367704  0.15564105  0.77145958     0.38200
C1583       C  0.62671124  0.16947142  0.73199614     0.36700
C1584       C  0.58606036  0.12548487  0.83117604     0.36700
N1585       N  0.63072257  0.17029884  0.70691835    -0.38200
N1586       N  0.57009155  0.10768460  0.84085513    -0.38200
N1587       N  0.69738035  0.15711479  0.76184106    -0.37600
N1588       N  0.54518449  0.19546113  0.83313714    -0.37600
C1589       C  0.39867945  0.83658359  0.14535369    -0.04300
C1590       C  0.40525599  0.80524841  0.14413871    -0.01400
C1591       C  0.42465995  0.79179036  0.16488879     0.03600
C1592       C  0.44051884  0.80893440  0.18547622    -0.04300
C1593       C  0.43578026  0.83966854  0.18643917    -0.01400
C1594       C  0.41550705  0.85349151  0.16683562     0.03600
C1595       C  0.39654456  0.78652835  0.11975732     0.38300
C1596       C  0.45204768  0.85720081  0.20794720     0.38200
C1597       C  0.41285609  0.88553261  0.16928348     0.36700
C1598       C  0.42954447  0.75983934  0.16423096     0.36700
N1599       N  0.41185488  0.91098533  0.17270700    -0.38200
N1600       N  0.43339226  0.73441839  0.16388346    -0.38200
N1601       N  0.46503400  0.87115385  0.22506396    -0.37600
N1602       N  0.39082951  0.77052255  0.10068879    -0.37600
C1603       C  0.59765287  0.79773800  0.18094737    -0.04300
C1604       C  0.60703810  0.78237148  0.15587283    -0.01400
C1605       C  0.62910784  0.79494931  0.13705472     0.03600
C1606       C  0.64201499  0.82371378  0.14324860    -0.04300
C1607       C  0.64030063  0.83072409  0.17392173    -0.01400
C1608       C  0.61564678  0.82125790  0.19083845     0.03600
C1609       C  0.59361562  0.75365004  0.14929635     0.38300
C1610       C  0.66614448  0.84043399  0.19041295     0.38200
C1611       C  0.61075271  0.83355213  0.21976578     0.36700
C1612       C  0.63877205  0.77637276  0.11323787     0.36700
N1613       N  0.60691377  0.84313190  0.24295038    -0.38200
N1614       N  0.64569424  0.75954136  0.09545998    -0.38200
N1615       N  0.68608274  0.84781064  0.20481884    -0.37600
N1616       N  0.58304739  0.73066743  0.14431142    -0.37600
C1617       C  0.21009727  0.91140172  0.68385284    -0.04300
C1618       C  0.21832097  0.88119593  0.68081068    -0.01400
C1619       C  0.19859069  0.86008682  0.66775373     0.03600
C1620       C  0.17413076  0.86952709  0.64989602    -0.04300
C1621       C  0.16514723  0.90014712  0.65483372    -0.01400
C1622       C  0.18171593  0.91931319  0.67353583     0.03600
C1623       C  0.24798112  0.87167428  0.68896394     0.38300
C1624       C  0.13696004  0.91235262  0.64501811     0.38200
C1625       C  0.16860737  0.94703487  0.68348453     0.36700
C1626       C  0.20559159  0.82886189  0.67131671     0.36700
N1627       N  0.15815730  0.96906464  0.69121328    -0.38200
N1628       N  0.21261165  0.80447138  0.67534519    -0.38200
N1629       N  0.11487610  0.92356945  0.63829814    -0.37600
N1630       N  0.27158536  0.86381245  0.69525613    -0.37600
C1631       C  0.21503286  0.06630256  0.67511229    -0.04300
C1632       C  0.22162707  0.07483912  0.64606785    -0.01400
C1633       C  0.20110419  0.09207481  0.62948945     0.03600
C1634       C  0.17692439  0.10742852  0.64361300    -0.04300
C1635       C  0.17720202  0.10515953  0.67507319    -0.01400
C1636       C  0.19164444  0.08115876  0.68918083     0.03600
C1637       C  0.24952849  0.06579220  0.63319643     0.38300
C1638       C  0.16795449  0.12917778  0.69392929     0.38200
C1639       C  0.18236966  0.07211693  0.71839405     0.36700
C1640       C  0.20511482  0.09218188  0.59792622     0.36700
N1641       N  0.17480757  0.06475915  0.74160377    -0.38200
N1642       N  0.20966208  0.09147342  0.57294891    -0.38200
N1643       N  0.16145805  0.14831762  0.70947076    -0.37600
N1644       N  0.27194974  0.05885029  0.62313515    -0.37600
C1645       C  0.36019796  0.11386591  0.81658058    -0.04300
C1646       C  0.34745734  0.12027916  0.78803988    -0.01400
C1647       C  0.33612726  0.09699564  0.77002585     0.03600
C1648       C  0.32761693  0.06935545  0.78271355    -0.04300
C1649       C  0.33506904  0.06489402  0.81236512    -0.01400
C1650       C  0.35693048  0.08302638  0.82535657     0.03600
C1651       C  0.34530437  0.15035494  0.77646571     0.38300
C1652       C  0.32296402  0.03995311  0.82892613     0.38200
C1653       C  0.38040804  0.06551984  0.83845652     0.36700
C1654       C  0.33381721  0.10164108  0.73853074     0.36700
N1655       N  0.39850442  0.04980358  0.84762508    -0.38200
N1656       N  0.33216365  0.10542017  0.71340949    -0.38200
N1657       N  0.31328784  0.02014800  0.84223768    -0.37600
N1658       N  0.34292396  0.17397735  0.76649465    -0.37600
C1659       C  0.32366931  0.91268398  0.78885976    -0.04300
C1660       C  0.33789929  0.88920995  0.77445003    -0.01400
C1661       C  0.35261154  0.86612347  0.79042607     0.03600
C1662       C  0.35375285  0.86592147  0.82220676    -0.04300
C1663       C  0.33708552  0.88945774  0.83605778    -0.01400
C1664       C  0.32283621  0.91223900  0.81959009     0.03600
C1665       C  0.33825448  0.88951166  0.74251342     0.38300
C1666       C  0.33312002  0.89074965  0.86762913     0.38200
C1667       C  0.30635071  0.93530507  0.83446719     0.36700
C1668       C  0.36725843  0.84426129  0.77252907     0.36700
N1669       N  0.29310486  0.95357390  0.84631160    -0.38200
N1670       N  0.37847389  0.82804333  0.75643160    -0.38200
N1671       N  0.32824302  0.89322819  0.89241515    -0.37600
N1672       N  0.33861322  0.88978590  0.71710194    -0.37600
C1673       C  0.13648297  0.65384099  0.13939142    -0.04300
C1674       C  0.11218548  0.66916092  0.12493231    -0.01400
C1675       C  0.09419618  0.68893233  0.14070059     0.03600
C1676       C  0.09382663  0.68758169  0.17152852    -0.04300
C1677       C  0.11799485  0.67339448  0.18576496    -0.01400
C1678       C  0.14166008  0.66209017  0.16900383     0.03600
C1679       C  0.10595775  0.66650122  0.09365520     0.38300
C1680       C  0.11882354  0.67015583  0.21749413     0.38200
C1681       C  0.17063434  0.65945904  0.18263220     0.36700
C1682       C  0.07614078  0.71067161  0.12515498     0.36700
N1683       N  0.19334058  0.65786123  0.19448709    -0.38200
N1684       N  0.06168994  0.72789888  0.11279221    -0.38200
N1685       N  0.11965961  0.66749087  0.24278223    -0.37600
N1686       N  0.10055766  0.66492063  0.06883016    -0.37600
C1687       C  0.85380957  0.64576915  0.10726983    -0.04300
C1688       C  0.82210658  0.64558346  0.10407379    -0.01400
C1689       C  0.80863241  0.65971321  0.07973671     0.03600
C1690       C  0.82351321  0.68288193  0.06466846    -0.04300
C1691       C  0.85288777  0.68966453  0.07332894    -0.01400
C1692       C  0.86883024  0.66974757  0.09185328     0.03600
C1693       C  0.80223181  0.63557806  0.12711616     0.38300
C1694       C  0.86691064  0.71688022  0.06284428     0.38200
C1695       C  0.90086014  0.67342643  0.09304400     0.36700
C1696       C  0.77914417  0.65032041  0.07050801     0.36700
N1697       N  0.92635923  0.67678599  0.09362053    -0.38200
N1698       N  0.75569076  0.64272121  0.06309410    -0.38200
N1699       N  0.87803839  0.73864881  0.05455905    -0.37600
N1700       N  0.78583949  0.62831091  0.14536141    -0.37600
C1701       C  0.89513607  0.63926758  0.14612289    -0.04300
C1702       C  0.92514941  0.63004125  0.15221244    -0.01400
C1703       C  0.94134295  0.64302400  0.17541161     0.03600
C1704       C  0.93658144  0.67308351  0.18213688    -0.04300
C1705       C  0.90941304  0.68546713  0.17253696    -0.01400
C1706       C  0.88735766  0.66725774  0.15925061     0.03600
C1707       C  0.94401358  0.61589673  0.13092221     0.38300
C1708       C  0.90418487  0.71706740  0.17485955     0.38200
C1709       C  0.85698982  0.67770826  0.16042769     0.36700
C1710       C  0.96527216  0.62655994  0.18927230     0.36700
N1711       N  0.83306774  0.68670052  0.16212889    -0.38200
N1712       N  0.98438710  0.61340787  0.20020846    -0.38200
N1713       N  0.89975270  0.74231855  0.17598973    -0.37600
N1714       N  0.96071448  0.60580484  0.11459083    -0.37600
C1715       C  0.84740180  0.36806398  0.82886676    -0.04300
C1716       C  0.85586581  0.39866875  0.82508640    -0.01400
C1717       C  0.84284431  0.41594697  0.80266832     0.03600
C1718       C  0.81301844  0.41067928  0.79432206    -0.04300
C1719       C  0.79962640  0.38462801  0.80598252    -0.01400
C1720       C  0.81756858  0.36170996  0.81843809     0.03600
C1721       C  0.86825662  0.41613861  0.84885203     0.38300
C1722       C  0.76752956  0.38155776  0.80616345     0.38200
C1723       C  0.80426929  0.33230176  0.81919677     0.36700
C1724       C  0.85987325  0.44047393  0.79043044     0.36700
N1725       N  0.79205741  0.30954047  0.81906324    -0.38200
N1726       N  0.87385700  0.45985201  0.78077589    -0.38200
N1727       N  0.74194015  0.37906953  0.80635168    -0.37600
N1728       N  0.87719846  0.43112014  0.86755210    -0.37600
C1729       C  0.13622000  0.64300974  0.82787768    -0.04300
C1730       C  0.13452159  0.67498849  0.82972896    -0.01400
C1731       C  0.11167272  0.69089015  0.81488345     0.03600
C1732       C  0.09240333  0.67653789  0.79496768    -0.04300
C1733       C  0.09503493  0.64582207  0.79099449    -0.01400
C1734       C  0.11460775  0.62896248  0.80859502     0.03600
C1735       C  0.15449153  0.69273546  0.84758087     0.38300
C1736       C  0.07753688  0.63141788  0.76806875     0.38200
C1737       C  0.11310933  0.59700320  0.80416199     0.36700
C1738       C  0.10799891  0.72255649  0.81988946     0.36700
N1739       N  0.11050121  0.57199788  0.79872057    -0.38200
N1740       N  0.10514156  0.74779243  0.82374793    -0.38200
N1741       N  0.06363170  0.62002077  0.74983810    -0.37600
N1742       N  0.16925858  0.70841808  0.86159629    -0.37600
C1743       C  0.13107243  0.35620682  0.10584154    -0.04300
C1744       C  0.12878548  0.35602759  0.07415329    -0.01400
C1745       C  0.11088455  0.37667633  0.05927607     0.03600
C1746       C  0.09060779  0.39384520  0.07471235    -0.04300
C1747       C  0.08718760  0.38963804  0.10496112    -0.01400
C1748       C  0.10704887  0.37105434  0.12068164     0.03600
C1749       C  0.14059354  0.33303080  0.05548402     0.38300
C1750       C  0.06518483  0.40700321  0.12035856     0.38200
C1751       C  0.10412158  0.37108049  0.15241685     0.36700
C1752       C  0.11280089  0.37975356  0.02741361     0.36700
N1753       N  0.10078619  0.37270448  0.17754467    -0.38200
N1754       N  0.11438058  0.38221493  0.00215149    -0.38200
N1755       N  0.04801054  0.42110306  0.13281008    -0.37600
N1756       N  0.14835823  0.31506026  0.03921350    -0.37600
C1757       C  0.13632443  0.61236556  0.10119700    -0.04300
C1758       C  0.11015938  0.59738156  0.11298779    -0.01400
C1759       C  0.09490928  0.57502640  0.09728954     0.03600
C1760       C  0.10271658  0.56865916  0.06858339    -0.04300
C1761       C  0.12643948  0.58386906  0.05541187    -0.01400
C1762       C  0.14216344  0.60640228  0.07079635     0.03600
C1763       C  0.09327650  0.60842205  0.13753115     0.38300
C1764       C  0.13399746  0.57685182  0.02517931     0.38200
C1765       C  0.16121924  0.62464545  0.05276926     0.36700
C1766       C  0.06969985  0.55923456  0.11026420     0.36700
N1767       N  0.17500470  0.63715628  0.03521517    -0.38200
N1768       N  0.04959729  0.54679140  0.12043986    -0.38200
N1769       N  0.14002902  0.57114806  0.00119920    -0.37600
N1770       N  0.07712236  0.61686036  0.15528015    -0.37600
C1771       C  0.92694776  0.56440177  0.06839341    -0.04300
C1772       C  0.91832282  0.55364945  0.09601974    -0.01400
C1773       C  0.90164901  0.57191371  0.11487295     0.03600
C1774       C  0.88897319  0.59955316  0.10430043    -0.04300
C1775       C  0.89270323  0.60520596  0.07330682    -0.01400
C1776       C  0.91515976  0.59100290  0.05765617     0.03600
C1777       C  0.92835136  0.52453474  0.10572827     0.38300
C1778       C  0.87051414  0.61888257  0.05458806     0.38200
C1779       C  0.92417545  0.60259655  0.02909483     0.36700
C1780       C  0.90061949  0.56273367  0.14549589     0.36700
N1781       N  0.93149890  0.61219773  0.00659497    -0.38200
N1782       N  0.90086411  0.55458190  0.16966488    -0.38200
N1783       N  0.85340775  0.62822022  0.03795206    -0.37600
N1784       N  0.93616055  0.50121959  0.11325372    -0.37600
C1785       C  0.89413046  0.35914592  0.86372005    -0.04300
C1786       C  0.89655682  0.35666483  0.89540620    -0.01400
C1787       C  0.91406336  0.37684431  0.91165056     0.03600
C1788       C  0.93363160  0.39630207  0.89743462    -0.04300
C1789       C  0.93663406  0.39516868  0.86696642    -0.01400
C1790       C  0.91725424  0.37705665  0.85001623     0.03600
C1791       C  0.88539340  0.33199444  0.91282432     0.38300
C1792       C  0.95869253  0.41424229  0.85295094     0.38200
C1793       C  0.92017116  0.38015967  0.81842161     0.36700
C1794       C  0.91278405  0.37689500  0.94369840     0.36700
N1795       N  0.92361697  0.38434824  0.79355270    -0.38200
N1796       N  0.91184526  0.37688637  0.96909978    -0.38200
N1797       N  0.97621705  0.42953698  0.84188949    -0.37600
N1798       N  0.87813427  0.31305632  0.92864064    -0.37600
C1799       C  0.13652305  0.60101976  0.86382545    -0.04300
C1800       C  0.13624376  0.56882559  0.86319572    -0.01400
C1801       C  0.11794841  0.55184926  0.88220492     0.03600
C1802       C  0.09820988  0.56571222  0.90121460    -0.04300
C1803       C  0.09492715  0.59683008  0.89967241    -0.01400
C1804       C  0.11381261  0.61428952  0.88178267     0.03600
C1805       C  0.15240961  0.55090996  0.84278552     0.38300
C1806       C  0.07329591  0.61172622  0.91804053     0.38200
C1807       C  0.11121756  0.64630916  0.88541683     0.36700
C1808       C  0.11863279  0.51937942  0.88133949     0.36700
N1809       N  0.10798713  0.67134924  0.89013678    -0.38200
N1810       N  0.11927944  0.49365975  0.88060403    -0.38200
N1811       N  0.05618963  0.62385485  0.93248070    -0.37600
N1812       N  0.16352483  0.53342955  0.82808580    -0.37600
C1813       C  0.09855962  0.39321164  0.90683434    -0.04300
C1814       C  0.12939716  0.39018019  0.91026505    -0.01400
C1815       C  0.14583111  0.37346571  0.88988373     0.03600
C1816       C  0.13121199  0.35765362  0.86622614    -0.04300
C1817       C  0.09939050  0.35592213  0.86835729    -0.01400
C1818       C  0.08368918  0.37620937  0.88555471     0.03600
C1819       C  0.14469333  0.40543708  0.93410675     0.38300
C1820       C  0.08192529  0.33089252  0.85813014     0.38200
C1821       C  0.05184023  0.37937870  0.88105901     0.36700
C1822       C  0.17785846  0.37619478  0.89244752     0.36700
N1823       N  0.02655328  0.38192077  0.87732072    -0.38200
N1824       N  0.20304005  0.38019887  0.89592367    -0.38200
N1825       N  0.06716095  0.31072239  0.85187208    -0.37600
N1826       N  0.15703544  0.41768854  0.95287829    -0.37600
C1827       C  0.92364550  0.40122624  0.06913234    -0.04300
C1828       C  0.89305756  0.39739880  0.06401637    -0.01400
C1829       C  0.87650539  0.37721145  0.08132263     0.03600
C1830       C  0.89076370  0.35915370  0.10375722    -0.04300
C1831       C  0.92267738  0.36056632  0.10437490    -0.01400
C1832       C  0.93783407  0.38409731  0.09072371     0.03600
C1833       C  0.87830903  0.41414892  0.04083015     0.38300
C1834       C  0.94139661  0.33531386  0.11121477     0.38200
C1835       C  0.96905211  0.38915579  0.09759592     0.36700
C1836       C  0.84452288  0.37618537  0.07612394     0.36700
N1837       N  0.99389509  0.39291188  0.10306180    -0.38200
N1838       N  0.81917196  0.37565775  0.07183351    -0.38200
N1839       N  0.95776172  0.31591519  0.11489309    -0.37600
N1840       N  0.86642446  0.42748503  0.02246410    -0.37600
C1841       C  0.85138276  0.64651786  0.86927756    -0.04300
C1842       C  0.84742251  0.67828021  0.86696338    -0.01400
C1843       C  0.83282705  0.69420261  0.88926858     0.03600
C1844       C  0.81711037  0.67913204  0.91145666    -0.04300
C1845       C  0.81543197  0.64789437  0.91074647    -0.01400
C1846       C  0.83212778  0.63161277  0.89005028     0.03600
C1847       C  0.85317496  0.69477728  0.84001474     0.38300
C1848       C  0.79667000  0.63244701  0.93182915     0.38200
C1849       C  0.83007751  0.59934455  0.89145031     0.36700
C1850       C  0.83347682  0.72652793  0.88902753     0.36700
N1851       N  0.82806556  0.57368868  0.89295297    -0.38200
N1852       N  0.83410341  0.75227416  0.88889752    -0.38200
N1853       N  0.78159712  0.62026944  0.94863413    -0.37600
N1854       N  0.85690146  0.70831413  0.81859874    -0.37600
C1855       C  0.89181723  0.64899627  0.82718584    -0.04300
C1856       C  0.89105421  0.64753948  0.79557225    -0.01400
C1857       C  0.91450837  0.65989345  0.77852887     0.03600
C1858       C  0.93572045  0.67921720  0.79113861    -0.04300
C1859       C  0.93361377  0.68535455  0.82128374    -0.01400
C1860       C  0.91354782  0.66926406  0.83936450     0.03600
C1861       C  0.86691960  0.63407864  0.77917126     0.38300
C1862       C  0.95284757  0.70808430  0.83395517     0.38200
C1863       C  0.91524311  0.67527448  0.87056865     0.36700
C1864       C  0.91754891  0.65155610  0.74790363     0.36700
N1865       N  0.91779359  0.68195356  0.89494637    -0.38200
N1866       N  0.92008921  0.64477807  0.72357751    -0.38200
N1867       N  0.96823080  0.72610561  0.84403075    -0.37600
N1868       N  0.84833577  0.62413775  0.76448280    -0.37600
C1869       C  0.85214488  0.60438530  0.83144594    -0.04300
C1870       C  0.86200183  0.57546998  0.82275397    -0.01400
C1871       C  0.84737159  0.56052554  0.79983083     0.03600
C1872       C  0.81666803  0.56436462  0.79593716    -0.04300
C1873       C  0.80334348  0.58753909  0.81154378    -0.01400
C1874       C  0.82140822  0.61022073  0.82382722     0.03600
C1875       C  0.87607290  0.55520844  0.84320957     0.38300
C1876       C  0.77133954  0.58826830  0.81491797     0.38200
C1877       C  0.80753225  0.63906501  0.82600965     0.36700
C1878       C  0.86376486  0.53973542  0.78215413     0.36700
N1879       N  0.79497846  0.66140283  0.82694316    -0.38200
N1880       N  0.87726379  0.52386848  0.76756008    -0.38200
N1881       N  0.74583707  0.58866031  0.81777665    -0.37600
N1882       N  0.88614579  0.53775002  0.85910074    -0.37600
C1883       C  0.89810613  0.61047428  0.86713160    -0.04300
C1884       C  0.89746900  0.60689695  0.89849220    -0.01400
C1885       C  0.91256877  0.58360950  0.91244313     0.03600
C1886       C  0.93597533  0.56973087  0.89822022    -0.04300
C1887       C  0.94268095  0.57759085  0.86923787    -0.01400
C1888       C  0.92324373  0.59637650  0.85309802     0.03600
C1889       C  0.88748354  0.62926763  0.91844266     0.38300
C1890       C  0.96829575  0.56424304  0.85539303     0.38200
C1891       C  0.92869630  0.59798964  0.82177680     0.36700
C1892       C  0.90503211  0.57517471  0.94248568     0.36700
N1893       N  0.93449397  0.59763846  0.79704776    -0.38200
N1894       N  0.89881421  0.56807768  0.96616317    -0.38200
N1895       N  0.98868950  0.55354135  0.84443828    -0.37600
N1896       N  0.88086423  0.64578709  0.93647351    -0.37600
C1897       C  0.20686027  0.56507494  0.78376864    -0.04300
C1898       C  0.21713313  0.56691754  0.81303854    -0.01400
C1899       C  0.20309109  0.58615642  0.83321370     0.03600
C1900       C  0.17974512  0.60555598  0.82353880    -0.04300
C1901       C  0.17715617  0.60873960  0.79210326    -0.01400
C1902       C  0.18602445  0.58564500  0.77368011     0.03600
C1903       C  0.24002544  0.54663860  0.82309293     0.38300
C1904       C  0.16990154  0.63655154  0.77740946     0.38200
C1905       C  0.17367985  0.58328685  0.74426815     0.36700
C1906       C  0.21104670  0.58310596  0.86397878     0.36700
N1907       N  0.16356874  0.58122656  0.72095482    -0.38200
N1908       N  0.21816460  0.57975524  0.88822060    -0.38200
N1909       N  0.16457789  0.65847297  0.76504541    -0.37600
N1910       N  0.25807947  0.53023210  0.83101609    -0.37600
C1911       C  0.19619105  0.41267457  0.78505034    -0.04300
C1912       C  0.18316728  0.38748515  0.77188077    -0.01400
C1913       C  0.17300637  0.36374345  0.78982480     0.03600
C1914       C  0.16447295  0.36900573  0.81992804    -0.04300
C1915       C  0.16871407  0.39934336  0.82904541    -0.01400
C1916       C  0.18990932  0.41746423  0.81490805     0.03600
C1917       C  0.18043569  0.38571462  0.74016305     0.38300
C1918       C  0.14616672  0.41604839  0.84412840     0.38200
C1919       C  0.20284964  0.44238989  0.83066747     0.36700
C1920       C  0.17381162  0.33447011  0.77672637     0.36700
N1921       N  0.21312735  0.46220370  0.84336932    -0.38200
N1922       N  0.17521739  0.31174919  0.76502382    -0.38200
N1923       N  0.12834903  0.43063500  0.85507216    -0.37600
N1924       N  0.17802865  0.38435119  0.71489402    -0.37600
C1925       C  0.81583822  0.55501625  0.17597173    -0.04300
C1926       C  0.83337016  0.57547253  0.19151179    -0.01400
C1927       C  0.84999202  0.59796128  0.17668754     0.03600
C1928       C  0.85029301  0.59994488  0.14483068    -0.04300
C1929       C  0.83177519  0.57827858  0.12982550    -0.01400
C1930       C  0.81488168  0.55664647  0.14530939     0.03600
C1931       C  0.83519058  0.57236755  0.22333781     0.38300
C1932       C  0.82862730  0.57788391  0.09809540     0.38200
C1933       C  0.79584608  0.53584008  0.12955369     0.36700
C1934       C  0.86707561  0.61711794  0.19596113     0.36700
N1935       N  0.78060042  0.51927724  0.11713953    -0.38200
N1936       N  0.87995353  0.63113694  0.21313938    -0.38200
N1937       N  0.82457648  0.57614175  0.07305447    -0.37600
N1938       N  0.83683774  0.56975742  0.24859568    -0.37600
C1939       C  0.85085935  0.35965082  0.14498687    -0.04300
C1940       C  0.84010025  0.35208081  0.17407969    -0.01400
C1941       C  0.82333325  0.37305725  0.19078166     0.03600
C1942       C  0.81232177  0.39941620  0.17737686    -0.04300
C1943       C  0.82038071  0.40464368  0.14813817    -0.01400
C1944       C  0.84533609  0.39024404  0.13739466     0.03600
C1945       C  0.84793635  0.32440753  0.18872010     0.38300
C1946       C  0.80763139  0.42878385  0.13109754     0.38200
C1947       C  0.86947137  0.41113807  0.13177446     0.36700
C1948       C  0.81873916  0.36808316  0.22193569     0.36700
N1949       N  0.88817960  0.42851026  0.12779092    -0.38200
N1950       N  0.81523156  0.36416106  0.24682860    -0.38200
N1951       N  0.79754316  0.44797720  0.11735195    -0.37600
N1952       N  0.85377437  0.30244502  0.20078810    -0.37600
C1953       C  0.08487303  0.17703471  0.67829650    -0.04300
C1954       C  0.10175191  0.19129733  0.65625554    -0.01400
C1955       C  0.12595414  0.17678283  0.64230447     0.03600
C1956       C  0.13036020  0.14493687  0.64532950    -0.04300
C1957       C  0.11058821  0.13054004  0.66609808    -0.01400
C1958       C  0.09124220  0.14704564  0.68441208     0.03600
C1959       C  0.09394506  0.22150660  0.64765013     0.38300
C1960       C  0.11023885  0.09857455  0.67050036     0.38200
C1961       C  0.07833734  0.13313214  0.71031368     0.36700
C1962       C  0.14386761  0.19593534  0.62365556     0.36700
N1963       N  0.06811306  0.12212442  0.73101370    -0.38200
N1964       N  0.15698468  0.21282222  0.60930624    -0.38200
N1965       N  0.10865211  0.07337076  0.67565820    -0.37600
N1966       N  0.08780866  0.24553661  0.64080752    -0.37600
C1967       C  0.89350790  0.14916965  0.63472417    -0.04300
C1968       C  0.92122138  0.16244421  0.62480355    -0.01400
C1969       C  0.93825845  0.18086159  0.64346720     0.03600
C1970       C  0.93027296  0.18444058  0.67302143    -0.04300
C1971       C  0.90133462  0.17536572  0.68152653    -0.01400
C1972       C  0.88193908  0.16185949  0.66084980     0.03600
C1973       C  0.93174506  0.16127162  0.59475717     0.38300
C1974       C  0.89166659  0.17821046  0.71171314     0.38200
C1975       C  0.85019277  0.16159825  0.66638029     0.36700
C1976       C  0.96412012  0.19680295  0.63197435     0.36700
N1977       N  0.82488475  0.16160555  0.67064352    -0.38200
N1978       N  0.98472345  0.20927818  0.62286096    -0.38200
N1979       N  0.88384408  0.18021238  0.73578821    -0.37600
N1980       N  0.94225335  0.16179159  0.57159927    -0.37600
C1981       C  0.92915610  0.29455283  0.78258206    -0.04300
C1982       C  0.92654495  0.28618132  0.81219846    -0.01400
C1983       C  0.90831845  0.30231399  0.83158683     0.03600
C1984       C  0.88742830  0.32427048  0.82106091    -0.04300
C1985       C  0.88748989  0.32896325  0.78960424    -0.01400
C1986       C  0.91025878  0.31687367  0.77173379     0.03600
C1987       C  0.94373060  0.26106845  0.82310360     0.38300
C1988       C  0.86549305  0.34639790  0.77412217     0.38200
C1989       C  0.91493517  0.32832396  0.74216782     0.36700
C1990       C  0.91087548  0.29375019  0.86219485     0.36700
N1991       N  0.91860467  0.33737740  0.71859702    -0.38200
N1992       N  0.91471681  0.28404069  0.88548437    -0.38200
N1993       N  0.84879826  0.35966021  0.75986310    -0.37600
N1994       N  0.95749077  0.24122612  0.83182137    -0.37600
C1995       C  0.08604950  0.29299075  0.78244109    -0.04300
C1996       C  0.08805159  0.32423088  0.78092232    -0.01400
C1997       C  0.10712453  0.34005420  0.80017816     0.03600
C1998       C  0.12865386  0.32487117  0.81837985    -0.04300
C1999       C  0.13043002  0.29326966  0.81396005    -0.01400
C2000       C  0.10716884  0.27764910  0.79965790     0.03600
C2001       C  0.06952138  0.34029089  0.76004781     0.38300
C2002       C  0.15722267  0.27649100  0.81979294     0.38200
C2003       C  0.10551403  0.24544917  0.80229254     0.36700
C2004       C  0.10334760  0.37207525  0.80110508     0.36700
N2005       N  0.10434420  0.21978279  0.80431537    -0.38200
N2006       N  0.09925069  0.39745568  0.80077466    -0.38200
N2007       N  0.17847460  0.26265989  0.82365775    -0.37600
N2008       N  0.05462147  0.35302627  0.74353476    -0.37600
C2009       C  0.69616644  0.19048838  0.05767363    -0.04300
C2010       C  0.71344988  0.17640872  0.07953080    -0.01400
C2011       C  0.70006983  0.16048155  0.10317994     0.03600
C2012       C  0.66829946  0.15703177  0.10491809    -0.04300
C2013       C  0.65135496  0.17410404  0.08373600    -0.01400
C2014       C  0.66519040  0.19005012  0.06050510     0.03600
C2015       C  0.74560339  0.17718931  0.07688585     0.38300
C2016       C  0.61931508  0.17657585  0.08579766     0.38200
C2017       C  0.64735579  0.20632632  0.03924667     0.36700
C2018       C  0.72029651  0.14789546  0.12461918     0.36700
N2019       N  0.63316127  0.21918608  0.02222370    -0.38200
N2020       N  0.73789848  0.13852575  0.14074444    -0.38200
N2021       N  0.59388743  0.17987571  0.08668755    -0.37600
N2022       N  0.77118515  0.17769688  0.07472357    -0.37600
C2023       C  0.70349764  0.17985811  0.90060527    -0.04300
C2024       C  0.68482565  0.19328953  0.87955269    -0.01400
C2025       C  0.67581995  0.17784158  0.85378619     0.10000
C2026       C  0.67881185  0.14600301  0.85184548    -0.04300
C2027       C  0.69779737  0.13277922  0.87402103    -0.01400
C2028       C  0.71147653  0.15006621  0.89636782     0.03600
C2029       C  0.67484027  0.22355143  0.88441745     0.38300
C2030       C  0.70496361  0.10138834  0.87402964     0.38200
C2031       C  0.73435578  0.13717439  0.91500920     0.36700
C2032       C  0.66325248  0.19602813  0.83062305     0.36700
N2033       N  0.75272826  0.12705498  0.92974962    -0.38200
N2034       N  0.65381641  0.21224792  0.81313519    -0.38200
N2035       N  0.71244728  0.07685021  0.87537760    -0.37600
N2036       N  0.66695404  0.24764723  0.88825562    -0.37600
C2037       C  0.81599495  0.28606956  0.05884611    -0.04300
C2038       C  0.81242720  0.28099655  0.08958233    -0.01400
C2039       C  0.82566588  0.30084431  0.11042839     0.03600
C2040       C  0.85191152  0.31763700  0.10290675    -0.04300
C2041       C  0.86042339  0.31362322  0.07267990    -0.01400
C2042       C  0.83894971  0.30627221  0.05148292     0.03600
C2043       C  0.79842357  0.25400380  0.10055844     0.38300
C2044       C  0.89095185  0.31299249  0.06276374     0.38200
C2045       C  0.84011576  0.32178145  0.02348802     0.36700
C2046       C  0.81082613  0.30265739  0.13828303     0.36700
N2047       N  0.84117920  0.33457512  0.00136239    -0.38200
N2048       N  0.79615173  0.30277415  0.15908682    -0.38200
N2049       N  0.91492500  0.31162027  0.05387484    -0.37600
N2050       N  0.78774392  0.23252084  0.11004544    -0.37600
C2051       C  0.81795189  0.28613562  0.90708435    -0.04300
C2052       C  0.81479574  0.31730843  0.90756707    -0.01400
C2053       C  0.82921836  0.33564475  0.88638463     0.03600
C2054       C  0.84739840  0.32293390  0.86384217    -0.04300
C2055       C  0.84439965  0.29125321  0.86042713    -0.01400
C2056       C  0.83305627  0.27328194  0.88342933     0.03600
C2057       C  0.79784449  0.33069789  0.93102040     0.38300
C2058       C  0.84847499  0.27674155  0.83233800     0.38200
C2059       C  0.83612117  0.24118417  0.88219261     0.36700
C2060       C  0.82675741  0.36759390  0.88982365     0.36700
N2061       N  0.83867471  0.21561726  0.88113634    -0.38200
N2062       N  0.82398943  0.39285514  0.89356632    -0.38200
N2063       N  0.85109586  0.26486117  0.81002557    -0.37600
N2064       N  0.78454950  0.34130795  0.94988362    -0.37600
C2065       C  0.21568159  0.68448902  0.06212495    -0.04300
C2066       C  0.22958150  0.66814165  0.08487573    -0.01400
C2067       C  0.21225903  0.65483613  0.10772256     0.03600
C2068       C  0.18042574  0.65518517  0.10595299    -0.04300
C2069       C  0.17034286  0.68111100  0.09047027    -0.01400
C2070       C  0.18550517  0.69118435  0.06537344     0.03600
C2071       C  0.26166798  0.66606078  0.08528652     0.38300
C2072       C  0.16033327  0.70603669  0.10780614     0.38200
C2073       C  0.17082567  0.71137172  0.04512373     0.36700
C2074       C  0.22766151  0.64601415  0.13431187     0.36700
N2075       N  0.15904992  0.72739926  0.02893584    -0.38200
N2076       N  0.24102410  0.63935639  0.15508007    -0.38200
N2077       N  0.15308136  0.72635133  0.12144188    -0.37600
N2078       N  0.28730435  0.66467918  0.08548684    -0.37600
C2079       C  0.18032855  0.63947121  0.86915175    -0.04300
C2080       C  0.17619391  0.63878695  0.90052946    -0.01400
C2081       C  0.18941654  0.66062997  0.91836423     0.03600
C2082       C  0.21721271  0.67288374  0.91053652    -0.04300
C2083       C  0.22727169  0.66650518  0.88177694    -0.01400
C2084       C  0.20735499  0.65446017  0.86040116     0.03600
C2085       C  0.16670496  0.61245068  0.91662497     0.38300
C2086       C  0.25822134  0.67109382  0.87415178     0.38200
C2087       C  0.21555577  0.65848308  0.82991969     0.36700
C2088       C  0.17448685  0.66886681  0.94523850     0.36700
N2089       N  0.22343469  0.66272548  0.80609402    -0.38200
N2090       N  0.16238570  0.67532993  0.96660544    -0.38200
N2091       N  0.28290650  0.67458427  0.86798286    -0.37600
N2092       N  0.16005285  0.59167214  0.93033383    -0.37600
C2093       C  0.35733068  0.83099723  0.10274582    -0.04300
C2094       C  0.36334049  0.82925443  0.07174915    -0.01400
C2095       C  0.34103197  0.82014075  0.05224168     0.03600
C2096       C  0.32234962  0.79630653  0.06033778    -0.04300
C2097       C  0.32175831  0.78978937  0.09108413    -0.01400
C2098       C  0.33470075  0.81012586  0.11184402     0.03600
C2099       C  0.39288744  0.83114675  0.05931369     0.38300
C2100       C  0.31089181  0.76121564  0.10170523     0.38200
C2101       C  0.32538871  0.80655328  0.14188820     0.36700
C2102       C  0.33798699  0.83590990  0.02451115     0.36700
N2103       N  0.31535384  0.80130235  0.16470942    -0.38200
N2104       N  0.33566558  0.84876187  0.00251453    -0.38200
N2105       N  0.30251318  0.73842925  0.11047749    -0.37600
N2106       N  0.41606028  0.83206792  0.04845772    -0.37600
C2107       C  0.32611827  0.78674621  0.90639196    -0.04300
C2108       C  0.35502584  0.77925952  0.89764801    -0.01400
C2109       C  0.37140467  0.79874924  0.87901899     0.03600
C2110       C  0.35678702  0.82208122  0.86245069    -0.04300
C2111       C  0.32518578  0.82292612  0.86602595    -0.01400
C2112       C  0.31188668  0.81003057  0.89111486     0.03600
C2113       C  0.36806764  0.75163450  0.90792576     0.38300
C2114       C  0.30509294  0.83232629  0.84288998     0.38200
C2115       C  0.28331484  0.82075325  0.90088994     0.36700
C2116       C  0.40334491  0.79497931  0.87892743     0.36700
N2117       N  0.26064524  0.82943694  0.90885508    -0.38200
N2118       N  0.42867057  0.79092787  0.87976570    -0.38200
N2119       N  0.28851767  0.83912812  0.82458135    -0.37600
N2120       N  0.37841307  0.72956085  0.91604652    -0.37600
C2121       C  0.21217164  0.40774932  0.17513834    -0.04300
C2122       C  0.22534525  0.38202385  0.16351055    -0.01400
C2123       C  0.20730106  0.35928917  0.15089713     0.03600
C2124       C  0.17725728  0.36536465  0.14123169    -0.04300
C2125       C  0.16791599  0.39531965  0.14697899    -0.01400
C2126       C  0.18188928  0.41213437  0.16906854     0.03600
C2127       C  0.25737362  0.37887524  0.16421879     0.38300
C2128       C  0.15274501  0.41364756  0.12549796     0.38200
C2129       C  0.16575344  0.43608572  0.18284237     0.36700
C2130       C  0.22024015  0.32989957  0.14971508     0.36700
N2131       N  0.15288586  0.45515132  0.19386361    -0.38200
N2132       N  0.23175321  0.30697601  0.14961636    -0.38200
N2133       N  0.14185570  0.42978440  0.10878590    -0.37600
N2134       N  0.28292864  0.37645036  0.16441460    -0.37600
C2135       C  0.21007306  0.56243643  0.17266664    -0.04300
C2136       C  0.18318215  0.57250370  0.18413159    -0.01400
C2137       C  0.16561189  0.59395792  0.16884731     0.03600
C2138       C  0.17439417  0.60611373  0.14047096    -0.04300
C2139       C  0.19837391  0.58979747  0.12718997    -0.01400
C2140       C  0.21773823  0.57159081  0.14417943     0.03600
C2141       C  0.17323521  0.55991908  0.21202541     0.38300
C2142       C  0.20478567  0.59128509  0.09606779     0.38200
C2143       C  0.24595850  0.56217505  0.13218802     0.36700
C2144       C  0.13814707  0.60057808  0.18350962     0.36700
N2145       N  0.26845061  0.55465662  0.12270920    -0.38200
N2146       N  0.11765017  0.60385128  0.19834138    -0.38200
N2147       N  0.21206751  0.59102888  0.07172979    -0.37600
N2148       N  0.16529884  0.54980653  0.23410260    -0.37600
C2149       C  0.17078839  0.14514551  0.60180540    -0.04300
C2150       C  0.16462879  0.14706983  0.57070957    -0.01400
C2151       C  0.17794054  0.16954921  0.55340608     0.03600
C2152       C  0.20648469  0.18020184  0.56083964    -0.04300
C2153       C  0.21697596  0.17332587  0.58942147    -0.01400
C2154       C  0.19749963  0.16070306  0.61064831     0.03600
C2155       C  0.15361398  0.12240016  0.55341663     0.38300
C2156       C  0.24797302  0.17804142  0.59702380     0.38200
C2157       C  0.20553653  0.16483957  0.64121577     0.36700
C2158       C  0.16323641  0.17909483  0.52653776     0.36700
N2159       N  0.21295079  0.16936597  0.66514661    -0.38200
N2160       N  0.15149143  0.18648985  0.50506864    -0.38200
N2161       N  0.27273208  0.18156395  0.60306710    -0.37600
N2162       N  0.14639631  0.10315069  0.53812817    -0.37600
C2163       C  0.18332170  0.14583979  0.36438057    -0.04300
C2164       C  0.18132452  0.17758151  0.36712222    -0.01400
C2165       C  0.19401463  0.19213589  0.39161915     0.03600
C2166       C  0.21715639  0.17866419  0.40768521    -0.04300
C2167       C  0.22517093  0.14953459  0.40012386    -0.01400
C2168       C  0.20633115  0.13217515  0.38184945     0.03600
C2169       C  0.17036116  0.19669157  0.34380203     0.38300
C2170       C  0.25285669  0.13742606  0.41121911     0.38200
C2171       C  0.21187475  0.10051598  0.38121999     0.36700
C2172       C  0.18329168  0.22123905  0.39996915     0.36700
N2173       N  0.21807137  0.07560014  0.38184999    -0.38200
N2174       N  0.17468936  0.24438576  0.40672064    -0.38200
N2175       N  0.27507145  0.12801431  0.41993511    -0.37600
N2176       N  0.16211938  0.21271531  0.32555002    -0.37600
C2177       C  0.63192587  0.15046173  0.14987818    -0.04300
C2178       C  0.63049821  0.18239758  0.15247745    -0.01400
C2179       C  0.60760873  0.19567524  0.16861537     0.03600
C2180       C  0.58941776  0.17834100  0.18692692    -0.04300
C2181       C  0.59522077  0.14791900  0.19047299    -0.01400
C2182       C  0.61593638  0.13377567  0.17206994     0.03600
C2183       C  0.65380320  0.20246673  0.14237414     0.38300
C2184       C  0.57816741  0.13077182  0.21174928     0.38200
C2185       C  0.61793403  0.10157455  0.17447554     0.36700
C2186       C  0.60287843  0.22757985  0.16662568     0.36700
N2187       N  0.61901633  0.07596226  0.17699721    -0.38200
N2188       N  0.59898442  0.25294446  0.16487184    -0.38200
N2189       N  0.56448033  0.11718956  0.22868300    -0.37600
N2190       N  0.67207190  0.21911464  0.13491925    -0.37600
C2191       C  0.43514788  0.17801336  0.17718496    -0.04300
C2192       C  0.42051893  0.15281196  0.18834958    -0.01400
C2193       C  0.39829355  0.13786715  0.17158580     0.03600
C2194       C  0.39353797  0.14488089  0.14058696    -0.04300
C2195       C  0.41375647  0.16733264  0.12923554    -0.01400
C2196       C  0.42961263  0.18650453  0.14818678     0.03600
C2197       C  0.42859792  0.14223822  0.21764472     0.38300
C2198       C  0.41927224  0.17260679  0.09838120     0.38200
C2199       C  0.44021351  0.21535837  0.13770523     0.36700
C2200       C  0.38388725  0.11390198  0.18758377     0.36700
N2201       N  0.44859379  0.23831145  0.12939616    -0.38200
N2202       N  0.37466149  0.09490969  0.20234397    -0.38200
N2203       N  0.42665624  0.17913644  0.07488220    -0.37600
N2204       N  0.43500160  0.13391767  0.24091626    -0.37600
C2205       C  0.14006136  0.31832212  0.14589610    -0.04300
C2206       C  0.11811699  0.29776215  0.13431309    -0.01400
C2207       C  0.09756854  0.28247578  0.15262896     0.03600
C2208       C  0.09641753  0.28791278  0.18288176    -0.04300
C2209       C  0.11802961  0.30686214  0.19522668    -0.01400
C2210       C  0.14081575  0.32005592  0.17766400     0.03600
C2211       C  0.11640632  0.29012936  0.10352804     0.38300
C2212       C  0.11610420  0.31377537  0.22633136     0.38200
C2213       C  0.16377326  0.33546571  0.19399401     0.36700
C2214       C  0.07675890  0.26103799  0.14007129     0.36700
N2215       N  0.18106966  0.34701022  0.20905905    -0.38200
N2216       N  0.06007839  0.24411565  0.13014359    -0.38200
N2217       N  0.11461207  0.31925076  0.25107764    -0.37600
N2218       N  0.11330822  0.28103402  0.07999865    -0.37600
C2219       C  0.89051495  0.14713563  0.32046345    -0.04300
C2220       C  0.88953725  0.17898063  0.31822764    -0.01400
C2221       C  0.91367635  0.19489366  0.30592579     0.03600
C2222       C  0.93427928  0.18027349  0.28793848    -0.04300
C2223       C  0.93033332  0.14973979  0.28290416    -0.01400
C2224       C  0.91143139  0.13282527  0.30123873     0.03600
C2225       C  0.86311483  0.19594925  0.32450408     0.38300
C2226       C  0.94658052  0.13558305  0.25937325     0.38200
C2227       C  0.91481975  0.10075956  0.30013512     0.36700
C2228       C  0.91706942  0.22646527  0.31167380     0.36700
N2229       N  0.91833677  0.07538999  0.29804467    -0.38200
N2230       N  0.91984594  0.25159000  0.31646998    -0.38200
N2231       N  0.95945065  0.12446870  0.24050850    -0.37600
N2232       N  0.84218882  0.21001347  0.32884453    -0.37600
C2233       C  0.93972880  0.28953252  0.17865544    -0.04300
C2234       C  0.93138204  0.31854045  0.18574563    -0.01400
C2235       C  0.91030964  0.33401992  0.16835575     0.03600
C2236       C  0.89325340  0.31930819  0.14552013    -0.04300
C2237       C  0.90025738  0.28823930  0.14107597    -0.01400
C2238       C  0.92442343  0.27468896  0.15607774     0.03600
C2239       C  0.94500182  0.33267522  0.21113315     0.38300
C2240       C  0.88481049  0.26901456  0.12060332     0.38200
C2241       C  0.93442265  0.24523098  0.14768537     0.36700
C2242       C  0.90765819  0.36551799  0.17435210     0.36700
N2243       N  0.94255372  0.22194073  0.14083065    -0.38200
N2244       N  0.90672872  0.39032766  0.18087095    -0.38200
N2245       N  0.87377739  0.25208600  0.10480825    -0.37600
N2246       N  0.95583759  0.34372214  0.23145647    -0.37600
C2247       C  0.09062613  0.17823691  0.29546747    -0.04300
C2248       C  0.11187058  0.16097307  0.28139652    -0.01400
C2249       C  0.13708779  0.15119352  0.29695382     0.03600
C2250       C  0.13642268  0.14667834  0.32845222    -0.04300
C2251       C  0.11302317  0.16312457  0.34278031    -0.01400
C2252       C  0.09193212  0.17999613  0.32626058     0.03600
C2253       C  0.10843682  0.15404375  0.25047051     0.38300
C2254       C  0.11183461  0.16816104  0.37400477     0.38200
C2255       C  0.07155357  0.19989017  0.34102975     0.36700
C2256       C  0.16419072  0.15086395  0.27986909     0.36700
N2257       N  0.05536365  0.21566744  0.35279607    -0.38200
N2258       N  0.18511430  0.15108911  0.26520415    -0.38200
N2259       N  0.10808539  0.17511325  0.39813588    -0.37600
N2260       N  0.10534605  0.14809567  0.22595483    -0.37600
C2261       C  0.31355148  0.91004782  0.17707592    -0.04300
C2262       C  0.32794563  0.88603664  0.19113502    -0.01400
C2263       C  0.34556251  0.86585796  0.17451200     0.03600
C2264       C  0.35380320  0.87289588  0.14431064    -0.04300
C2265       C  0.34386989  0.90181954  0.13529082    -0.01400
C2266       C  0.31804851  0.91345829  0.14703266     0.03600
C2267       C  0.32581861  0.88275239  0.22272897     0.38300
C2268       C  0.36499119  0.92550671  0.12882924     0.38200
C2269       C  0.29977381  0.93301526  0.12942540     0.36700
C2270       C  0.35676158  0.84031310  0.19065406     0.36700
N2271       N  0.28449012  0.94772727  0.11505209    -0.38200
N2272       N  0.36529432  0.82034876  0.20442186    -0.38200
N2273       N  0.38119537  0.94505023  0.12397964    -0.37600
N2274       N  0.32488634  0.87998777  0.24796988    -0.37600
C2275       C  0.20847120  0.06609355  0.28310535    -0.04300
C2276       C  0.22444641  0.08790698  0.29864985    -0.01400
C2277       C  0.20944407  0.10991490  0.31492517     0.03600
C2278       C  0.17808818  0.10726605  0.32077982    -0.04300
C2279       C  0.16212048  0.08748609  0.30116974    -0.01400
C2280       C  0.17734381  0.06759982  0.28255787     0.03600
C2281       C  0.25663866  0.08815936  0.29727050     0.38300
C2282       C  0.12983464  0.08657932  0.30017227     0.38200
C2283       C  0.16093053  0.04871285  0.26235427     0.36700
C2284       C  0.22613886  0.13697722  0.32093980     0.36700
N2285       N  0.14797738  0.03395129  0.24588798    -0.38200
N2286       N  0.23991424  0.15839994  0.32518651    -0.38200
N2287       N  0.10416178  0.08564660  0.29915152    -0.37600
N2288       N  0.28229989  0.08826037  0.29622111    -0.37600
C2289       C  0.31122440  0.06484251  0.16897572    -0.04300
C2290       C  0.31490124  0.09501095  0.17704496    -0.01400
C2291       C  0.32939055  0.11551610  0.15790470     0.03600
C2292       C  0.34863640  0.10526654  0.13512983    -0.04300
C2293       C  0.34372959  0.07455391  0.12665512    -0.01400
C2294       C  0.32267459  0.05646215  0.14161966     0.03600
C2295       C  0.30651219  0.10505975  0.20609941     0.38300
C2296       C  0.35544680  0.06163958  0.09993751     0.38200
C2297       C  0.31042464  0.03027174  0.12730769     0.36700
C2298       C  0.32609300  0.14682925  0.16429757     0.36700
N2299       N  0.30023747  0.00992445  0.11545400    -0.38200
N2300       N  0.32165479  0.17116676  0.17096956    -0.38200
N2301       N  0.36359166  0.05034667  0.07869517    -0.37600
N2302       N  0.30008970  0.11348761  0.22916071    -0.37600
C2303       C  0.20566686  0.91251998  0.28656535    -0.04300
C2304       C  0.21861639  0.88546299  0.29546236    -0.01400
C2305       C  0.20125089  0.86313005  0.30952607     0.03600
C2306       C  0.17246841  0.86990172  0.32166068    -0.04300
C2307       C  0.16451632  0.90076636  0.31914712    -0.01400
C2308       C  0.17719720  0.91890471  0.29721957     0.03600
C2309       C  0.24996840  0.88049550  0.29064626     0.38300
C2310       C  0.15098605  0.91731753  0.34269114     0.38200
C2311       C  0.16134497  0.94514230  0.28729975     0.36700
C2312       C  0.21387869  0.83355780  0.30999941     0.36700
N2313       N  0.14851205  0.96594043  0.27942130    -0.38200
N2314       N  0.22579016  0.81084505  0.30958261    -0.38200
N2315       N  0.14141606  0.93185125  0.36122738    -0.37600
N2316       N  0.27499005  0.87626441  0.28728091    -0.37600
C2317       C  0.17390945  0.32345823  0.85702767    -0.04300
C2318       C  0.20562918  0.32857553  0.85584846    -0.01400
C2319       C  0.22461802  0.31806840  0.87863284     0.03600
C2320       C  0.21436986  0.29743589  0.89962610    -0.04300
C2321       C  0.18463297  0.28811647  0.89832420    -0.01400
C2322       C  0.16436494  0.30187901  0.87879009     0.03600
C2323       C  0.22029655  0.34523473  0.83274750     0.38300
C2324       C  0.17459061  0.26457583  0.91815425     0.38200
C2325       C  0.13386977  0.29189403  0.88148984     0.36700
C2326       C  0.25469826  0.32977242  0.88140813     0.36700
N2327       N  0.11080679  0.28119423  0.88558881    -0.38200
N2328       N  0.27851785  0.33933835  0.88373492    -0.38200
N2329       N  0.16665123  0.24599039  0.93406028    -0.37600
N2330       N  0.23400019  0.35808962  0.81528129    -0.37600
C2331       C  0.32174646  0.18865398  0.05675029    -0.04300
C2332       C  0.31034449  0.16003235  0.06205858    -0.01400
C2333       C  0.32450513  0.14057136  0.08239216     0.03600
C2334       C  0.34861870  0.15075433  0.10122292    -0.04300
C2335       C  0.35225762  0.18261606  0.10119832    -0.01400
C2336       C  0.34285189  0.19999987  0.07682750     0.03600
C2337       C  0.28383492  0.15055845  0.04611187     0.38300
C2338       C  0.36023590  0.19916072  0.12729840     0.38200
C2339       C  0.35446607  0.22999389  0.07297592     0.36700
C2340       C  0.31184891  0.11097172  0.08334711     0.36700
N2341       N  0.36375657  0.25390252  0.06999189    -0.38200
N2342       N  0.29895169  0.08860653  0.08227657    -0.38200
N2343       N  0.36596994  0.21338717  0.14769774    -0.37600
N2344       N  0.26272588  0.14315289  0.03345767    -0.37600
C2345       C  0.21460751  0.29893664  0.05543348    -0.04300
C2346       C  0.21629380  0.32970746  0.06065899    -0.01400
C2347       C  0.19788893  0.34304034  0.08199635     0.03600
C2348       C  0.18000774  0.32528649  0.10192531    -0.04300
C2349       C  0.18425130  0.29374184  0.10006270    -0.01400
C2350       C  0.19770944  0.28115998  0.07501879     0.03600
C2351       C  0.23657095  0.34794669  0.04337844     0.38300
C2352       C  0.17843229  0.27373141  0.12453657     0.38200
C2353       C  0.19423711  0.24953400  0.06955024     0.36700
C2354       C  0.19667847  0.37527212  0.08141880     0.36700
N2355       N  0.19122361  0.22436878  0.06508976    -0.38200
N2356       N  0.19680504  0.40095287  0.07947334    -0.38200
N2357       N  0.17448451  0.25736341  0.14390571    -0.37600
N2358       N  0.25264174  0.36248045  0.02952967    -0.37600
C2359       C  0.32847430  0.19192830  0.90049677    -0.04300
C2360       C  0.31330540  0.17330792  0.88062298    -0.01400
C2361       C  0.32823644  0.15947755  0.85678246     0.03600
C2362       C  0.36023484  0.16057084  0.85427317    -0.04300
C2363       C  0.37498156  0.18005500  0.87512008    -0.01400
C2364       C  0.35918117  0.19571513  0.89706114     0.03600
C2365       C  0.28195928  0.16736643  0.88563765     0.38300
C2366       C  0.40664186  0.18596767  0.87402869     0.38200
C2367       C  0.37470014  0.21627433  0.91642859     0.36700
C2368       C  0.30922920  0.14374881  0.83632383     0.36700
N2369       N  0.38693864  0.23271689  0.93184417    -0.38200
N2370       N  0.29239423  0.13181736  0.82102997    -0.38200
N2371       N  0.43145551  0.19280594  0.87455457    -0.37600
N2372       N  0.25709784  0.16241108  0.88991354    -0.37600
C2373       C  0.58997413  0.67963277  0.67565473    -0.04300
C2374       C  0.61174244  0.66206617  0.68935063    -0.01400
C2375       C  0.63483808  0.64881166  0.67287542     0.03600
C2376       C  0.63398955  0.64845232  0.64107788    -0.04300
C2377       C  0.61015914  0.66547223  0.62786657    -0.01400
C2378       C  0.59016332  0.68218929  0.64497508     0.03600
C2379       C  0.60993755  0.65713319  0.72091720     0.38300
C2380       C  0.60543542  0.66727717  0.59640620     0.38200
C2381       C  0.56946067  0.70248998  0.63081812     0.36700
C2382       C  0.65839028  0.63592123  0.69039119     0.36700
N2383       N  0.55305458  0.71871833  0.61960481    -0.38200
N2384       N  0.67618739  0.62647380  0.70625735    -0.38200
N2385       N  0.59930099  0.67036073  0.57188155    -0.37600
N2386       N  0.60838897  0.65314735  0.74600220    -0.37600
C2387       C  0.67661909  0.60699182  0.63959251    -0.04300
C2388       C  0.66949127  0.57667949  0.64698618    -0.01400
C2389       C  0.68438849  0.56248172  0.67016104     0.03600
C2390       C  0.71438707  0.56924973  0.67558445    -0.04300
C2391       C  0.72564903  0.59579436  0.66284780    -0.01400
C2392       C  0.70583190  0.61645097  0.64945092     0.03600
C2393       C  0.65769523  0.55585513  0.62574495     0.38300
C2394       C  0.75730013  0.60191401  0.66298838     0.38200
C2395       C  0.71602156  0.64707828  0.64725687     0.36700
C2396       C  0.66901984  0.53981146  0.68706665     0.36700
N2397       N  0.72491507  0.67128856  0.64597971    -0.38200
N2398       N  0.65644607  0.52257114  0.70141065    -0.38200
N2399       N  0.78255599  0.60684721  0.66311280    -0.37600
N2400       N  0.64952672  0.53820307  0.60909223    -0.37600
C2401       C  0.67579231  0.64766397  0.59959093    -0.04300
C2402       C  0.69815062  0.63372624  0.58176994    -0.01400
C2403       C  0.71527863  0.65054639  0.56144149     0.03600
C2404       C  0.70718384  0.67988279  0.55399520    -0.04300
C2405       C  0.68502450  0.69358216  0.57081578    -0.01400
C2406       C  0.67380167  0.67936215  0.59623787     0.03600
C2407       C  0.70317137  0.60186214  0.58267821     0.38300
C2408       C  0.67412000  0.72276853  0.56251979     0.38200
C2409       C  0.66526290  0.69875029  0.62000556     0.36700
C2410       C  0.74064722  0.63719115  0.54721855     0.36700
N2411       N  0.65914252  0.71477276  0.63879722    -0.38200
N2412       N  0.76080141  0.62662018  0.53572760    -0.38200
N2413       N  0.66525673  0.74597188  0.55590771    -0.37600
N2414       N  0.70782403  0.57657651  0.58271311    -0.37600
C2415       C  0.39680546  0.33466934  0.64075570    -0.04300
C2416       C  0.40804620  0.33998983  0.67025734    -0.01400
C2417       C  0.43070647  0.32212139  0.68293733     0.03600
C2418       C  0.44556852  0.30083181  0.66640656    -0.04300
C2419       C  0.43869154  0.29829715  0.63651185    -0.01400
C2420       C  0.41571783  0.31554141  0.62348657     0.03600
C2421       C  0.40024429  0.36506643  0.68825217     0.38300
C2422       C  0.45482122  0.27675469  0.61924588     0.38200
C2423       C  0.41155345  0.31160641  0.59211632     0.36700
C2424       C  0.43941001  0.32590532  0.71356805     0.36700
N2425       N  0.40918973  0.30694561  0.56723397    -0.38200
N2426       N  0.44626460  0.32883257  0.73791075    -0.38200
N2427       N  0.46762754  0.25945735  0.60563242    -0.37600
N2428       N  0.39621775  0.38390266  0.70495540    -0.37600
C2429       C  0.34842033  0.37065882  0.64599796    -0.04300
C2430       C  0.33493584  0.39796253  0.63562866    -0.01400
C2431       C  0.31765960  0.41545605  0.65455904     0.03600
C2432       C  0.31712178  0.40964741  0.68492854    -0.04300
C2433       C  0.32902059  0.38237919  0.69500315    -0.01400
C2434       C  0.33951917  0.36123236  0.67459559     0.03600
C2435       C  0.33501048  0.40708875  0.60490438     0.38300
C2436       C  0.33206563  0.37641611  0.72623484     0.38200
C2437       C  0.34243165  0.33052882  0.68401774     0.36700
C2438       C  0.29816788  0.43807491  0.64236383     0.36700
N2439       N  0.34450216  0.30628013  0.69242237    -0.38200
N2440       N  0.28186762  0.45539169  0.63277563    -0.38200
N2441       N  0.33467719  0.37157179  0.75110604    -0.37600
N2442       N  0.33432507  0.41529292  0.58075698    -0.37600
C2443       C  0.34508198  0.32644311  0.61103503    -0.04300
C2444       C  0.35074705  0.29524736  0.60826284    -0.01400
C2445       C  0.33825718  0.27861097  0.58466643     0.03600
C2446       C  0.31592880  0.29097762  0.56675025    -0.04300
C2447       C  0.30336861  0.31789246  0.57589810    -0.01400
C2448       C  0.31635819  0.33429726  0.59923634     0.03600
C2449       C  0.36395871  0.27839363  0.63201085     0.38300
C2450       C  0.27684630  0.32886348  0.56123163     0.38200
C2451       C  0.29549137  0.35190194  0.61558593     0.36700
C2452       C  0.34707701  0.24806296  0.57994785     0.36700
N2453       N  0.27739949  0.36470920  0.62817032    -0.38200
N2454       N  0.35397896  0.22364089  0.57622193    -0.38200
N2455       N  0.25562559  0.33739254  0.54961887    -0.37600
N2456       N  0.37390244  0.26370029  0.65046479    -0.37600
C2457       C  0.66813094  0.36715876  0.32213877    -0.04300
C2458       C  0.70001452  0.36983910  0.32429276    -0.01400
C2459       C  0.71620083  0.38778202  0.30425142     0.03600
C2460       C  0.70149464  0.40628727  0.28411858    -0.04300
C2461       C  0.67045835  0.40587049  0.28273609    -0.01400
C2462       C  0.65383249  0.38705994  0.30152350     0.03600
C2463       C  0.71671688  0.35993389  0.34977209     0.38300
C2464       C  0.65552644  0.42468667  0.26125773     0.38200
C2465       C  0.62181446  0.38944238  0.29928992     0.36700
C2466       C  0.74846229  0.38864303  0.30541797     0.36700
N2467       N  0.59663455  0.39312118  0.29600810    -0.38200
N2468       N  0.77413590  0.38931698  0.30618356    -0.38200
N2469       N  0.64357024  0.43947681  0.24407138    -0.37600
N2470       N  0.73112336  0.35332168  0.36986798    -0.37600
C2471       C  0.66798549  0.32341916  0.36201928    -0.04300
C2472       C  0.68728348  0.30067683  0.35092330    -0.01400
C2473       C  0.70758765  0.28600271  0.37032153     0.03600
C2474       C  0.70130874  0.28399504  0.40082321    -0.04300
C2475       C  0.67776294  0.30152587  0.41059666    -0.01400
C2476       C  0.66961456  0.32602824  0.39351501     0.03600
C2477       C  0.68918071  0.29246437  0.32049108     0.38300
C2478       C  0.66392260  0.29699144  0.43900881     0.38200
C2479       C  0.67027732  0.35414222  0.40900710     0.36700
C2480       C  0.73590760  0.27618694  0.35897946     0.36700
N2481       N  0.67139372  0.37596635  0.42233666    -0.38200
N2482       N  0.75851536  0.26866476  0.34975403    -0.38200
N2483       N  0.65275528  0.29346153  0.46161684    -0.37600
N2484       N  0.69284396  0.28275773  0.29732144    -0.37600
C2485       C  0.62570842  0.32747533  0.32107989    -0.04300
C2486       C  0.59560282  0.32154462  0.32941212    -0.01400
C2487       C  0.58105977  0.29617666  0.31933393     0.03600
C2488       C  0.58622444  0.28734174  0.29052513    -0.04300
C2489       C  0.61118819  0.29948867  0.27590817    -0.01400
C2490       C  0.63194621  0.31778072  0.29143178     0.03600
C2491       C  0.57497119  0.34552268  0.33474658     0.38300
C2492       C  0.61495335  0.29412821  0.24473091     0.38200
C2493       C  0.65721536  0.32835117  0.27461623     0.36700
C2494       C  0.55703252  0.28335630  0.33648015     0.36700
N2495       N  0.67700105  0.33612642  0.26027484    -0.38200
N2496       N  0.53797676  0.27299338  0.35020103    -0.38200
N2497       N  0.61802466  0.29007512  0.21986885    -0.37600
N2498       N  0.55753847  0.36380423  0.33883481    -0.37600
C2499       C  0.39406064  0.65504118  0.32238546    -0.04300
C2500       C  0.42558710  0.65813857  0.32935183    -0.01400
C2501       C  0.44366200  0.67980418  0.31504381     0.03600
C2502       C  0.43480842  0.69309220  0.28845578    -0.04300
C2503       C  0.40443490  0.69025437  0.28086646    -0.01400
C2504       C  0.38401081  0.67559029  0.30017383     0.03600
C2505       C  0.44070474  0.64312804  0.35340861     0.38300
C2506       C  0.39400747  0.70063892  0.25241137     0.38200
C2507       C  0.35276139  0.68096779  0.29515049     0.36700
C2508       C  0.47115591  0.68988176  0.32891071     0.36700
N2509       N  0.32838709  0.68693509  0.28983137    -0.38200
N2510       N  0.49275954  0.69792314  0.34028144    -0.38200
N2511       N  0.38556386  0.70868557  0.22968354    -0.37600
N2512       N  0.45469042  0.63264195  0.37213709    -0.37600
C2513       C  0.34987851  0.65741579  0.35840897    -0.04300
C2514       C  0.31775314  0.65682952  0.35788922    -0.01400
C2515       C  0.30088992  0.66972624  0.38090236     0.03600
C2516       C  0.31463754  0.68720958  0.40263865    -0.04300
C2517       C  0.34448267  0.69531470  0.39827686    -0.01400
C2518       C  0.36211376  0.68075211  0.37683578     0.03600
C2519       C  0.30082550  0.64659731  0.33268162     0.38300
C2520       C  0.35740672  0.71820579  0.41693337     0.38200
C2521       C  0.39309245  0.68937179  0.37674516     0.36700
C2522       C  0.26875915  0.66688537  0.38104854     0.36700
N2523       N  0.41710258  0.69853455  0.37875586    -0.38200
N2524       N  0.24311990  0.66509203  0.38093360    -0.38200
N2525       N  0.36757508  0.73656189  0.43167216    -0.37600
N2526       N  0.28651034  0.63896340  0.31288232    -0.37600
C2527       C  0.35084463  0.61110269  0.32106614    -0.04300
C2528       C  0.33082766  0.59045921  0.33590330    -0.01400
C2529       C  0.31213567  0.57018859  0.32037166     0.03600
C2530       C  0.31418251  0.56701540  0.28983496    -0.04300
C2531       C  0.33461406  0.58512734  0.27469618    -0.01400
C2532       C  0.35247453  0.60686366  0.28947420     0.03600
C2533       C  0.32770727  0.58983735  0.36759439     0.38300
C2534       C  0.33838196  0.57994237  0.24339740     0.38200
C2535       C  0.37421034  0.62125039  0.27079628     0.36700
C2536       C  0.29020302  0.55232184  0.33603431     0.36700
N2537       N  0.39122109  0.63053038  0.25401316    -0.38200
N2538       N  0.27269076  0.53818591  0.34850701    -0.38200
N2539       N  0.34132967  0.57550136  0.21858082    -0.37600
N2540       N  0.32355991  0.58764563  0.39257982    -0.37600
C2541       C  0.67544221  0.64469673  0.35454919    -0.04300
C2542       C  0.67701649  0.67664038  0.35557711    -0.01400
C2543       C  0.69079013  0.69121941  0.37958907     0.03600
C2544       C  0.71123359  0.67612759  0.39781268    -0.04300
C2545       C  0.71636417  0.64584463  0.39197691    -0.01400
C2546       C  0.69738366  0.62975146  0.37252194     0.03600
C2547       C  0.66827956  0.69547268  0.33110450     0.38300
C2548       C  0.74061760  0.63087702  0.40694685     0.38200
C2549       C  0.70048540  0.59768978  0.37267294     0.36700
C2550       C  0.68368929  0.72204601  0.38549080     0.36700
N2551       N  0.70447078  0.57230028  0.37369776    -0.38200
N2552       N  0.67798427  0.74658558  0.39030017    -0.38200
N2553       N  0.75988208  0.61891391  0.41892874    -0.37600
N2554       N  0.66207078  0.71107608  0.31173321    -0.37600
C2555       C  0.63062887  0.64733252  0.31525520    -0.04300
C2556       C  0.60967970  0.66736724  0.32877712    -0.01400
C2557       C  0.58880116  0.68383123  0.31210997     0.03600
C2558       C  0.58699453  0.68097692  0.28164429    -0.04300
C2559       C  0.60704214  0.66239082  0.26737865    -0.01400
C2560       C  0.62852611  0.64573603  0.28343532     0.03600
C2561       C  0.60951932  0.67365168  0.35993253     0.38300
C2562       C  0.60514361  0.66032605  0.23553584     0.38200
C2563       C  0.64582410  0.62582483  0.26560551     0.36700
C2564       C  0.56974230  0.70537512  0.32635052     0.36700
N2565       N  0.65813878  0.61034936  0.24958463    -0.38200
N2566       N  0.55496853  0.72278996  0.33766968    -0.38200
N2567       N  0.60362760  0.65887528  0.21020768    -0.37600
N2568       N  0.60723976  0.68163486  0.38391571    -0.37600
C2569       C  0.66996069  0.60236935  0.31731688    -0.04300
C2570       C  0.69709978  0.61052476  0.30242652    -0.01400
C2571       C  0.71501347  0.58865676  0.28868077     0.03600
C2572       C  0.70301293  0.56031231  0.28162053    -0.04300
C2573       C  0.67455772  0.55366072  0.29286288    -0.01400
C2574       C  0.66266566  0.57118572  0.31539256     0.03600
C2575       C  0.70681679  0.64121606  0.29957737     0.38300
C2576       C  0.65793376  0.52770816  0.28310863     0.38200
C2577       C  0.65090904  0.55392560  0.33974477     0.36700
C2578       C  0.74598595  0.59539686  0.28291665     0.36700
N2579       N  0.64261640  0.53908874  0.35895910    -0.38200
N2580       N  0.77073176  0.60085372  0.27853757    -0.38200
N2581       N  0.64452823  0.50707006  0.27545669    -0.37600
N2582       N  0.71550119  0.66527929  0.29609489    -0.37600
C2583       C  0.35161482  0.36373837  0.31971760    -0.04300
C2584       C  0.36403376  0.38380286  0.29785822    -0.01400
C2585       C  0.34620992  0.40444942  0.28231340     0.03600
C2586       C  0.31664472  0.40916520  0.29045370    -0.04300
C2587       C  0.30393993  0.39010115  0.31168123    -0.01400
C2588       C  0.31999131  0.36557180  0.32341248     0.03600
C2589       C  0.39496354  0.38282295  0.28920550     0.38300
C2590       C  0.27429913  0.39642336  0.32224905     0.38200
C2591       C  0.30293027  0.34381930  0.33985927     0.36700
C2592       C  0.35850966  0.42137351  0.25780057     0.36700
N2593       N  0.28774737  0.32727949  0.35247442    -0.38200
N2594       N  0.36823488  0.43483363  0.23828375    -0.38200
N2595       N  0.25084714  0.40175533  0.33091605    -0.37600
N2596       N  0.41893730  0.38298506  0.28017873    -0.37600
C2597       C  0.35722810  0.32552813  0.36629994    -0.04300
C2598       C  0.34560146  0.29587875  0.36133837    -0.01400
C2599       C  0.33555166  0.27776990  0.38516537     0.03600
C2600       C  0.32665639  0.29090102  0.41186186    -0.04300
C2601       C  0.33507972  0.32082015  0.41590994    -0.01400
C2602       C  0.35590392  0.33415762  0.39677332     0.03600
C2603       C  0.34269683  0.28298578  0.33240025     0.38300
C2604       C  0.32405885  0.33780792  0.44044781     0.38200
C2605       C  0.38024381  0.34867804  0.41202179     0.36700
C2606       C  0.33493034  0.24563203  0.38214628     0.36700
N2607       N  0.39953822  0.35929160  0.42529407    -0.38200
N2608       N  0.33475181  0.22000508  0.37981261    -0.38200
N2609       N  0.31514959  0.35151555  0.45988943    -0.37600
N2610       N  0.33936517  0.27113665  0.31012417    -0.37600
C2611       C  0.39235748  0.32159408  0.32192130    -0.04300
C2612       C  0.41345710  0.30224215  0.33609552    -0.01400
C2613       C  0.43294318  0.28428033  0.31949904     0.03600
C2614       C  0.43278208  0.28549067  0.28859723    -0.04300
C2615       C  0.41012947  0.30137971  0.27436734    -0.01400
C2616       C  0.38841437  0.31651418  0.29078744     0.03600
C2617       C  0.41727925  0.30178847  0.36773819     0.38300
C2618       C  0.40877358  0.30171256  0.24246977     0.38200
C2619       C  0.36097829  0.32304142  0.27519375     0.36700
C2620       C  0.45400153  0.26497835  0.33433770     0.36700
N2621       N  0.33928131  0.32759417  0.26224349    -0.38200
N2622       N  0.47070609  0.24948620  0.34611979    -0.38200
N2623       N  0.40766615  0.30183581  0.21707098    -0.37600
N2624       N  0.42135849  0.30037030  0.39281309    -0.37600
C2625       C  0.68486822  0.37488855  0.62964432    -0.04300
C2626       C  0.71394275  0.36793806  0.64141127    -0.01400
C2627       C  0.73174457  0.39039066  0.65494216     0.03600
C2628       C  0.71829905  0.41622204  0.66623131    -0.04300
C2629       C  0.68931193  0.42224472  0.65593334    -0.01400
C2630       C  0.67713709  0.40552069  0.63282612     0.03600
C2631       C  0.72643807  0.33836101  0.64058111     0.38300
C2632       C  0.67182476  0.44623240  0.66753021     0.38200
C2633       C  0.66492583  0.42313462  0.60893311     0.36700
C2634       C  0.76373413  0.38707167  0.65644080     0.36700
N2635       N  0.65593867  0.43792887  0.59002317    -0.38200
N2636       N  0.78925248  0.38450377  0.65763035    -0.38200
N2637       N  0.65693988  0.46494778  0.67633703    -0.37600
N2638       N  0.73761038  0.31526991  0.64026066    -0.37600
C2639       C  0.64439081  0.33034536  0.63433629    -0.04300
C2640       C  0.64431389  0.33205637  0.66606566    -0.01400
C2641       C  0.62170869  0.31774401  0.68298325     0.03600
C2642       C  0.60194932  0.29715159  0.67016558    -0.04300
C2643       C  0.60379318  0.29234094  0.63981950    -0.01400
C2644       C  0.62264348  0.31004028  0.62192407     0.03600
C2645       C  0.66569912  0.34918997  0.68282070     0.38300
C2646       C  0.58560183  0.26895886  0.62677015     0.38200
C2647       C  0.61933992  0.30575168  0.59050198     0.36700
C2648       C  0.61810486  0.32505933  0.71381155     0.36700
N2649       N  0.61536711  0.30076067  0.56588927    -0.38200
N2650       N  0.61534377  0.33089975  0.73835586    -0.38200
N2651       N  0.57122058  0.25024399  0.61649964    -0.37600
N2652       N  0.68165856  0.36225051  0.69811298    -0.37600
C2653       C  0.68585091  0.33154424  0.59335433    -0.04300
C2654       C  0.68523685  0.29972916  0.59350541    -0.01400
C2655       C  0.69541586  0.28419046  0.56898708     0.03600
C2656       C  0.71774419  0.29693722  0.55114080    -0.04300
C2657       C  0.72665668  0.32644691  0.55715698    -0.01400
C2658       C  0.70854235  0.34465475  0.57494633     0.03600
C2659       C  0.68067863  0.28225722  0.62004958     0.38300
C2660       C  0.75457712  0.33783900  0.54583334     0.38200
C2661       C  0.71279836  0.37657280  0.57247813     0.36700
C2662       C  0.68416947  0.25432862  0.56367665     0.36700
N2663       N  0.71678579  0.40190189  0.56968888    -0.38200
N2664       N  0.67512984  0.23053352  0.55956226    -0.38200
N2665       N  0.77697396  0.34678930  0.53692615    -0.37600
N2666       N  0.67774902  0.26806011  0.64116742    -0.37600
C2667       C  0.59606153  0.56776112  0.56886756    -0.04300
C2668       C  0.62078821  0.58160202  0.55622287    -0.01400
C2669       C  0.63446803  0.60551962  0.57043161     0.03600
C2670       C  0.63220121  0.60872771  0.60175415    -0.04300
C2671       C  0.60762647  0.59272277  0.61512628    -0.01400
C2672       C  0.58887821  0.57391466  0.59813027     0.03600
C2673       C  0.63148551  0.57251817  0.52761610     0.38300
C2674       C  0.60202435  0.59336689  0.64648934     0.38200
C2675       C  0.56375940  0.55864916  0.61145853     0.36700
C2676       C  0.64280064  0.62944506  0.55060612     0.36700
N2677       N  0.54394005  0.54629949  0.62226222    -0.38200
N2678       N  0.64750181  0.64815343  0.53364041    -0.38200
N2679       N  0.59683376  0.59279370  0.67136281    -0.37600
N2680       N  0.64071659  0.56473676  0.50530651    -0.37600
C2681       C  0.42636721  0.40257612  0.56588943    -0.04300
C2682       C  0.40606003  0.38255773  0.55358918    -0.01400
C2683       C  0.38439610  0.36847914  0.57128634     0.03600
C2684       C  0.38487129  0.37175299  0.60269711    -0.04300
C2685       C  0.40429618  0.39501552  0.61363098    -0.01400
C2686       C  0.42560033  0.40888126  0.59564754     0.03600
C2687       C  0.40676839  0.37749055  0.52199361     0.38300
C2688       C  0.39919081  0.41030812  0.64089865     0.38200
C2689       C  0.44595652  0.43124584  0.60745835     0.36700
C2690       C  0.36054464  0.35477288  0.55498597     0.36700
N2691       N  0.46200793  0.44913105  0.61673757    -0.38200
N2692       N  0.34308921  0.34657539  0.53813064    -0.38200
N2693       N  0.39563056  0.42569131  0.66080895    -0.37600
N2694       N  0.40733387  0.37352849  0.49691625    -0.37600
C2695       C  0.59039350  0.40265185  0.39632848    -0.04300
C2696       C  0.58985483  0.37150694  0.40085701    -0.01400
C2697       C  0.60919942  0.35311651  0.38504353     0.03600
C2698       C  0.62983895  0.36581167  0.36411796    -0.04300
C2699       C  0.63401625  0.39738263  0.36602982    -0.01400
C2700       C  0.61205730  0.41529534  0.37797941     0.03600
C2701       C  0.56931896  0.35785869  0.42160366     0.38300
C2702       C  0.66309528  0.41130046  0.36400203     0.38200
C2703       C  0.61294238  0.44715583  0.37218064     0.36700
C2704       C  0.60683036  0.32111902  0.39040221     0.36700
N2705       N  0.61372580  0.47247490  0.36740601    -0.38200
N2706       N  0.60457109  0.29580045  0.39482578    -0.38200
N2707       N  0.68605369  0.42301271  0.36405960    -0.37600
N2708       N  0.55297127  0.34668254  0.43791114    -0.37600
C2709       C  0.38866411  0.61208102  0.36157521    -0.04300
C2710       C  0.40636816  0.58869122  0.34875090    -0.01400
C2711       C  0.42276369  0.56859770  0.36639041     0.03600
C2712       C  0.42530688  0.57319515  0.39650904    -0.04300
C2713       C  0.40916697  0.59557078  0.40989216    -0.01400
C2714       C  0.38928808  0.61307947  0.39334785     0.03600
C2715       C  0.41178222  0.58650482  0.31753732     0.38300
C2716       C  0.41272656  0.60012374  0.44150071     0.38200
C2717       C  0.36923329  0.62933969  0.41144957     0.36700
C2718       C  0.43871216  0.54399840  0.35336371     0.36700
N2719       N  0.35497647  0.64033739  0.42925849    -0.38200
N2720       N  0.45134828  0.52433528  0.34311641    -0.38200
N2721       N  0.41569923  0.60378682  0.46648384    -0.37600
N2722       N  0.41867880  0.58287152  0.29338842    -0.37600
C2723       C  0.62742607  0.61002476  0.35662686    -0.04300
C2724       C  0.60280962  0.59334232  0.34403493    -0.01400
C2725       C  0.58417494  0.57517371  0.36178183     0.03600
C2726       C  0.58806857  0.57443418  0.39221557    -0.04300
C2727       C  0.60825296  0.59386432  0.40547470    -0.01400
C2728       C  0.62736594  0.61185523  0.38838059     0.03600
C2729       C  0.59740447  0.59190585  0.31262120     0.38300
C2730       C  0.60776585  0.59674824  0.43737141     0.38200
C2731       C  0.64265668  0.63451022  0.40513874     0.36700
C2732       C  0.56163757  0.55607488  0.34863492     0.36700
N2733       N  0.65223851  0.65268135  0.42042088    -0.38200
N2734       N  0.54381446  0.54073042  0.33815669    -0.38200
N2735       N  0.60672328  0.59961548  0.46256543    -0.37600
N2736       N  0.59181985  0.58949329  0.28790625    -0.37600
C2737       C  0.42523244  0.41526375  0.38807047    -0.04300
C2738       C  0.39428304  0.41733218  0.38551200    -0.01400
C2739       C  0.37807016  0.39542307  0.36993391     0.03600
C2740       C  0.39283291  0.37128587  0.35491390    -0.04300
C2741       C  0.42469481  0.37457354  0.35282223    -0.01400
C2742       C  0.44030751  0.39613305  0.36938638     0.03600
C2743       C  0.37854315  0.44092596  0.40047422     0.38300
C2744       C  0.44331497  0.35764721  0.33372830     0.38200
C2745       C  0.47241638  0.39955954  0.36642617     0.36700
C2746       C  0.34612559  0.39625924  0.37414405     0.36700
N2747       N  0.49784831  0.40237685  0.36395158    -0.38200
N2748       N  0.32111103  0.39812239  0.37948837    -0.38200
N2749       N  0.46068835  0.34578035  0.31953363    -0.37600
N2750       N  0.36573475  0.45963618  0.41215053    -0.37600
C2751       C  0.59600500  0.40163678  0.56091824    -0.04300
C2752       C  0.61814332  0.38638379  0.54599899    -0.01400
C2753       C  0.63826490  0.36795990  0.56136758     0.03600
C2754       C  0.63943929  0.36772284  0.59322349    -0.04300
C2755       C  0.61515182  0.38289471  0.60755522    -0.01400
C2756       C  0.59341105  0.39855619  0.59128768     0.03600
C2757       C  0.61933916  0.38888143  0.51403364     0.38300
C2758       C  0.61301445  0.38543612  0.63926012     0.38200
C2759       C  0.56871411  0.41272149  0.60597590     0.36700
C2760       C  0.65432413  0.34791105  0.54256518     0.36700
N2761       N  0.54895742  0.42383806  0.61763824    -0.38200
N2762       N  0.66527801  0.33249191  0.52556029    -0.38200
N2763       N  0.61029881  0.38892239  0.66426782    -0.37600
N2764       N  0.62013953  0.39093268  0.48869303    -0.37600
C2765       C  0.38867237  0.65065236  0.64549423    -0.04300
C2766       C  0.38992750  0.68250709  0.64519284    -0.01400
C2767       C  0.41488421  0.69754082  0.65698857     0.03600
C2768       C  0.43314634  0.68337557  0.67803962    -0.04300
C2769       C  0.42679893  0.65350907  0.68524762    -0.01400
C2770       C  0.40738155  0.63651755  0.66732883     0.03600
C2771       C  0.36482358  0.70066410  0.63673389     0.38300
C2772       C  0.44152386  0.63976733  0.71032390     0.38200
C2773       C  0.40824218  0.60453269  0.67164594     0.36700
C2774       C  0.42181881  0.72748071  0.64690010     0.36700
N2775       N  0.40983686  0.57932162  0.67668583    -0.38200
N2776       N  0.42731911  0.75133292  0.63875401    -0.38200
N2777       N  0.45337280  0.62880055  0.73018304    -0.37600
N2778       N  0.34481380  0.71554252  0.63069678    -0.37600
C2779       C  0.31082986  0.67887633  0.55668754    -0.04300
C2780       C  0.29764912  0.66231701  0.57956445    -0.01400
C2781       C  0.31504222  0.64923966  0.60250217     0.03600
C2782       C  0.34716197  0.65129489  0.60264173    -0.04300
C2783       C  0.35957501  0.66947682  0.57923177    -0.01400
C2784       C  0.34178845  0.68204134  0.55660061     0.03600
C2785       C  0.26561198  0.65803678  0.57891970     0.38300
C2786       C  0.39076555  0.67742676  0.57794476     0.38200
C2787       C  0.35562588  0.69875747  0.53273672     0.36700
C2788       C  0.29818859  0.63346511  0.62471423     0.36700
N2789       N  0.36658336  0.71175125  0.51355813    -0.38200
N2790       N  0.28275573  0.62136274  0.64126898    -0.38200
N2791       N  0.41473875  0.68627769  0.57481802    -0.37600
N2792       N  0.24012134  0.65464235  0.57843286    -0.37600
C2793       C  0.35181523  0.60706281  0.64307357    -0.04300
C2794       C  0.34985571  0.57591077  0.63610482    -0.01400
C2795       C  0.32831034  0.55780291  0.64953767     0.03600
C2796       C  0.31976420  0.56357532  0.67856328    -0.04300
C2797       C  0.32896695  0.59124375  0.69045476    -0.01400
C2798       C  0.34001067  0.61412693  0.67161348     0.03600
C2799       C  0.37458305  0.55905218  0.62491058     0.38300
C2800       C  0.32735272  0.59635948  0.72184054     0.38200
C2801       C  0.33808543  0.64444957  0.68211195     0.36700
C2802       C  0.31708773  0.53229118  0.63364947     0.36700
N2803       N  0.33589395  0.66832308  0.69117521    -0.38200
N2804       N  0.30831119  0.51241364  0.62007528    -0.38200
N2805       N  0.32615128  0.60048084  0.74686739    -0.37600
N2806       N  0.39406056  0.54442125  0.61723337    -0.37600
C2807       C  0.38964458  0.61528907  0.60013900    -0.04300
C2808       C  0.42167619  0.61619064  0.60087723    -0.01400
C2809       C  0.43831931  0.59518002  0.58550953     0.03600
C2810       C  0.42483499  0.57777648  0.56378002    -0.04300
C2811       C  0.39442001  0.58123613  0.55770774    -0.01400
C2812       C  0.37663053  0.59855010  0.57629283     0.03600
C2813       C  0.43915000  0.64094096  0.61183879     0.38300
C2814       C  0.38114371  0.56679146  0.53229796     0.38200
C2815       C  0.34472839  0.59600053  0.57189776     0.36700
C2816       C  0.46992666  0.59225199  0.59167951     0.36700
N2817       N  0.31955292  0.59268442  0.56772366    -0.38200
N2818       N  0.49504143  0.59022261  0.59666351    -0.38200
N2819       N  0.37053723  0.55546139  0.51200603    -0.37600
N2820       N  0.45471111  0.66045205  0.61830644    -0.37600
loop_ 
_geom_bond_atom_site_label_1 
_geom_bond_atom_site_label_2 
_geom_bond_distance 
_geom_bond_site_symmetry_2 
_ccdc_geom_bond_type 
C1         C2765   1.598       .  S
C1         C2782   1.620       .  S
C1         C2793   1.611       .  S
C1         C2807   1.593       .  S
N2            N3   1.316       .  A
N2            N8   1.314       .  A
N2          Mn31   2.160       .  S
N3           C10   1.345       .  A
N4            N6   1.311       .  A
N4            N5   1.317       .  A
N4          Mn20   2.168       .  S
N5           C11   1.350       .  A
N6            N7   1.316       .  A
N6          Mn31   2.189       .  S
N7           C11   1.355       .  A
N8            N9   1.315       .  A
N8          Mn20   2.187       .  S
N9           C10   1.350       .  A
C10        C2681   1.457       .  S
C11        C2737   1.487       .  S
N12          N18   1.313       .  A
N12          N13   1.317       .  A
N12         Mn42   2.188       .  S
N13          C21   1.352       .  A
N14          N15   1.317       .  A
N14          N16   1.314       .  A
N14         Mn20   2.181       .  S
N15          C22   1.350       .  A
N16          N17   1.315       .  A
N16         Mn42   2.178       .  S
N17          C22   1.349       .  A
N18          N19   1.316       .  A
N18         Mn20   2.176       .  S
N19          C21   1.348       .  A
Mn20        Cl44   2.527       .  S
C21        C2712   1.465       .  S
C22        C2810   1.475       .  S
N23          N24   1.314       .  A
N23          N29   1.312       .  A
N23         Mn31   2.163       .  S
N24          C32   1.348       .  A
N25          N27   1.315       .  A
N25          N26   1.317       .  A
N25         Mn43   2.187       .  S
N26          C33   1.350       .  A
N27          N28   1.320       .  A
N27         Mn31   2.200       .  S
N28          C33   1.352       .  A
N29          N30   1.315       .  A
N29         Mn43   2.182       .  S
N30          C32   1.353       .  A
Mn31        Cl44   2.529       .  S
C32        C2695   1.476       .  S
C33        C2751   1.474       .  S
N34          N35   1.321       .  A
N34          N40   1.314       .  A
N34         Mn42   2.206       .  S
N35          C45   1.355       .  A
N36          N37   1.320       .  A
N36          N38   1.312       .  A
N36         Mn43   2.201       .  S
N37          C46   1.354       .  A
N38          N39   1.318       .  A
N38         Mn42   2.179       .  S
N39          C46   1.350       .  A
N40          N41   1.318       .  A
N40         Mn43   2.187       .  S
N41          C45   1.351       .  A
Mn42        Cl44   2.529       .  S
Mn43        Cl44   2.531       .  S
C45        C2667   1.475       .  S
C46        C2726   1.473       .  S
C47        C2625   1.611       .  S
C47        C2639   1.613       .  S
C47        C2653   1.596       .  S
C47        C2754   1.608       .  S
C48        C2583   1.605       .  S
C48        C2597   1.625       .  S
C48        C2611   1.609       .  S
C48        C2740   1.607       .  S
C49        C2541   1.612       .  S
C49        C2555   1.616       .  S
C49        C2569   1.615       .  S
C49        C2723   1.606       .  S
C50        C2499   1.623       .  S
C50        C2513   1.629       .  S
C50        C2527   1.633       .  S
C50        C2709   1.603       .  S
C51        C2457   1.591       .  S
C51        C2471   1.611       .  S
C51        C2485   1.622       .  S
C51        C2698   1.594       .  S
C52        C2415   1.630       .  S
C52        C2429   1.589       .  S
C52        C2443   1.630       .  S
C52        C2684   1.593       .  S
C53        C2376   1.611       .  S
C53        C2387   1.611       .  S
C53        C2401   1.601       .  S
C53        C2670   1.601       .  S
N54          C59   1.364       .  A
N54          C58   1.362   1_556  A
N54          H86   1.037       .  S
N55          C62   1.352       .  A
N55          C63   1.355       .  A
N56          C61   1.357       .  A
N56          C60   1.361   1_556  A
N56          H87   1.030       .  S
N57          C64   1.355       .  A
N57          C65   1.355       .  A
C58          C66   1.390   1_554  A
C58          C74   1.438       .  A
C59          C75   1.428       .  A
C59          C67   1.382       .  A
C60          C68   1.387   1_554  A
C60          C77   1.432       .  A
C61          C76   1.431       .  A
C61          C69   1.388       .  A
C62          C74   1.420       .  A
C62          C70   1.389       .  A
C63          C77   1.421       .  A
C63          C71   1.386       .  A
C64          C72   1.385       .  A
C64          C75   1.420       .  A
C65          C73   1.389       .  A
C65          C76   1.426       .  A
C66          C67   1.375       .  A
C66          H78   1.077   1_556  S
C67          H79   1.083       .  S
C68          C69   1.375       .  A
C68          H80   1.078   1_556  S
C69          H81   1.082       .  S
C70          C71   1.364       .  A
C70          H82   1.080       .  S
C71          H83   1.082       .  S
C72          C73   1.369       .  A
C72          H84   1.082       .  S
C73          H85   1.081       .  S
C74        C2331   1.515       .  S
C75        C2359   1.525       .  S
C76        C2320   1.512       .  S
C77        C2345   1.520       .  S
N88          C93   1.357   1_565  A
N88          C92   1.356       .  A
N88         H120   1.043       .  S
N89          C96   1.348       .  A
N89          C97   1.348       .  A
N90          C95   1.353   1_565  A
N90          C94   1.352       .  A
N90         H121   1.044       .  S
N91          C98   1.348       .  A
N91          C99   1.348       .  A
C92         C100   1.386       .  A
C92         C108   1.424       .  A
C93         C109   1.429       .  A
C93         C101   1.389       .  A
C94         C102   1.386       .  A
C94         C111   1.415       .  A
C95         C110   1.411       .  A
C95         C103   1.381       .  A
C96         C108   1.405       .  A
C96         C104   1.383       .  A
C97         C111   1.412       .  A
C97         C105   1.386       .  A
C98         C106   1.389       .  A
C98         C109   1.415       .  A
C99         C107   1.383       .  A
C99         C110   1.404       .  A
C100        C101   1.384   1_565  A
C100        H112   1.081       .  S
C101        H113   1.082       .  S
C102        C103   1.381   1_565  A
C102        H114   1.082       .  S
C103        H115   1.077       .  S
C104        C105   1.376       .  A
C104        H116   1.082       .  S
C105        H117   1.076       .  S
C106        C107   1.381       .  A
C106        H118   1.082       .  S
C107        H119   1.082       .  S
C108       C2261   1.506       .  S
C109       C2289   1.525       .  S
C110       C2275   1.505       .  S
C111       C2303   1.509       .  S
N122        C127   1.358       .  A
N122        C126   1.360   1_455  A
N122        H154   1.034       .  S
N123        C130   1.352       .  A
N123        C131   1.352       .  A
N124        C129   1.359       .  A
N124        C128   1.358   1_455  A
N124        H155   1.033       .  S
N125        C132   1.356       .  A
N125        C133   1.356       .  A
C126        C134   1.387   1_655  A
C126        C142   1.428       .  A
C127        C143   1.430       .  A
C127        C135   1.388       .  A
C128        C136   1.389       .  A
C128        C145   1.429       .  A
C129        C144   1.424       .  A
C129        C137   1.385       .  A
C130        C142   1.417       .  A
C130        C138   1.387       .  A
C131        C145   1.418       .  A
C131        C139   1.387       .  A
C132        C140   1.386       .  A
C132        C143   1.426       .  A
C133        C141   1.388       .  A
C133        C144   1.428       .  A
C134        C135   1.376       .  A
C134        H146   1.081   1_455  S
C135        H147   1.083       .  S
C136        C137   1.368   1_655  A
C136        H148   1.078       .  S
C137        H149   1.082       .  S
C138        C139   1.365       .  A
C138        H150   1.082       .  S
C139        H151   1.082       .  S
C140        C141   1.370       .  A
C140        H152   1.081       .  S
C141        H153   1.081       .  S
C142       C2233   1.510       .  S
C143       C2208   1.520       .  S
C144       C2247   1.517       .  S
C145       C2222   1.505       .  S
N156        C161   1.353       .  A
N156        C160   1.355       .  A
N156        H188   1.043       .  S
N157        C164   1.343       .  A
N157        C165   1.342       .  A
N158        C163   1.355       .  A
N158        C162   1.354       .  A
N158        H189   1.042       .  S
N159        C166   1.351       .  A
N159        C167   1.350       .  A
C160        C168   1.386       .  A
C160        C176   1.418       .  A
C161        C177   1.412       .  A
C161        C169   1.381       .  A
C162        C170   1.377       .  A
C162        C179   1.410       .  A
C163        C178   1.419       .  A
C163        C171   1.389       .  A
C164        C176   1.399       .  A
C164        C172   1.386       .  A
C165        C179   1.397       .  A
C165        C173   1.386       .  A
C166        C174   1.385       .  A
C166        C177   1.410       .  A
C167        C175   1.388       .  A
C167        C178   1.414       .  A
C168        C169   1.378       .  A
C168        H180   1.082       .  S
C169        H181   1.077       .  S
C170        C171   1.370       .  A
C170        H182   1.078       .  S
C171        H183   1.078       .  S
C172        C173   1.374       .  A
C172        H184   1.082       .  S
C173        H185   1.082       .  S
C174        C175   1.375       .  A
C174        H186   1.082       .  S
C175        H187   1.082       .  S
C176       C2488   1.498       .  S
C177       C2614   1.508       .  S
C178       C2191   1.502       .  S
C179       C2180   1.490       .  S
N190        C195   1.356       .  A
N190        C194   1.358       .  A
N190        H222   1.041       .  S
N191        C198   1.354       .  A
N191        C199   1.351       .  A
N192        C197   1.360       .  A
N192        C196   1.359       .  A
N192        H223   1.041       .  S
N193        C200   1.355       .  A
N193        C201   1.356       .  A
C194        C202   1.385       .  A
C194        C210   1.424       .  A
C195        C211   1.425       .  A
C195        C203   1.390       .  A
C196        C204   1.386       .  A
C196        C213   1.425       .  A
C197        C212   1.432       .  A
C197        C205   1.388       .  A
C198        C210   1.416       .  A
C198        C206   1.385       .  A
C199        C213   1.416       .  A
C199        C207   1.387       .  A
C200        C208   1.387       .  A
C200        C211   1.422       .  A
C201        C209   1.386       .  A
C201        C212   1.423       .  A
C202        C203   1.376       .  A
C202        H214   1.082       .  S
C203        H215   1.079       .  S
C204        C205   1.384       .  A
C204        H216   1.082       .  S
C205        H217   1.082       .  S
C206        C207   1.372       .  A
C206        H218   1.082       .  S
C207        H219   1.081       .  S
C208        C209   1.370       .  A
C208        H220   1.081       .  S
C209        H221   1.081       .  S
C210       C2152   1.525       .  S
C211       C2166   1.512       .  S
C212       C2600   1.531       .  S
C213       C2446   1.511       .  S
N224        C229   1.360       .  A
N224        C228   1.360       .  A
N224        H256   1.035       .  S
N225        C232   1.355       .  A
N225        C233   1.356       .  A
N226        C231   1.358       .  A
N226        C230   1.357       .  A
N226        H257   1.036       .  S
N227        C234   1.358       .  A
N227        C235   1.358       .  A
C228        C236   1.388       .  A
C228        C244   1.431       .  A
C229        C245   1.430       .  A
C229        C237   1.387       .  A
C230        C238   1.386       .  A
C230        C247   1.425       .  A
C231        C246   1.427       .  A
C231        C239   1.389       .  A
C232        C244   1.422       .  A
C232        C240   1.388       .  A
C233        C247   1.421       .  A
C233        C241   1.384       .  A
C234        C242   1.386       .  A
C234        C245   1.428       .  A
C235        C243   1.387       .  A
C235        C246   1.428       .  A
C236        C237   1.376       .  A
C236        H248   1.082       .  S
C237        H249   1.082       .  S
C238        C239   1.374       .  A
C238        H250   1.082       .  S
C239        H251   1.080       .  S
C240        C241   1.368       .  A
C240        H252   1.080       .  S
C241        H253   1.080       .  S
C242        C243   1.378       .  A
C242        H254   1.082       .  S
C243        H255   1.082       .  S
C244       C2586   1.515       .  S
C245       C2530   1.525       .  S
C246       C2135   1.521       .  S
C247       C2121   1.519       .  S
N258        C263   1.353   1_556  A
N258        C262   1.355       .  A
N258        H290   1.044       .  S
N259        C266   1.356       .  A
N259        C267   1.352       .  A
N260        C265   1.361   1_556  A
N260        C264   1.357       .  A
N260        H291   1.043       .  S
N261        C268   1.347       .  A
N261        C269   1.351       .  A
C262        C270   1.388       .  A
C262        C278   1.423       .  A
C263        C279   1.415       .  A
C263        C271   1.384       .  A
C264        C272   1.388       .  A
C264        C281   1.427       .  A
C265        C280   1.434       .  A
C265        C273   1.387   1_554  A
C266        C278   1.419       .  A
C266        C274   1.384       .  A
C267        C281   1.420       .  A
C267        C275   1.389       .  A
C268        C276   1.386       .  A
C268        C279   1.408       .  A
C269        C277   1.387       .  A
C269        C280   1.415       .  A
C270        C271   1.385   1_556  A
C270        H282   1.082       .  S
C271        H283   1.081       .  S
C272        C273   1.381       .  A
C272        H284   1.079       .  S
C273        H285   1.082   1_556  S
C274        C275   1.373       .  A
C274        H286   1.082       .  S
C275        H287   1.080       .  S
C276        C277   1.380       .  A
C276        H288   1.082       .  S
C277        H289   1.082       .  S
C278       C2082   1.530       .  S
C279       C2065   1.500       .  S
C280       C2096   1.539       .  S
C281       C2107   1.512       .  S
N292        C297   1.352       .  A
N292        C296   1.358   1_556  A
N292        H324   1.044       .  S
N293        C300   1.355       .  A
N293        C301   1.349       .  A
N294        C299   1.361       .  A
N294        C298   1.358   1_556  A
N294        H325   1.039       .  S
N295        C302   1.352       .  A
N295        C303   1.353       .  A
C296        C304   1.390   1_554  A
C296        C312   1.430       .  A
C297        C313   1.413       .  A
C297        C305   1.383       .  A
C298        C306   1.386   1_554  A
C298        C315   1.427       .  A
C299        C314   1.433       .  A
C299        C307   1.389       .  A
C300        C312   1.421       .  A
C300        C308   1.387       .  A
C301        C315   1.413       .  A
C301        C309   1.385       .  A
C302        C310   1.383       .  A
C302        C313   1.410       .  A
C303        C311   1.390       .  A
C303        C314   1.421       .  A
C304        C305   1.385       .  A
C304        H316   1.082   1_556  S
C305        H317   1.081       .  S
C306        C307   1.383       .  A
C306        H318   1.082   1_556  S
C307        H319   1.082       .  S
C308        C309   1.379       .  A
C308        H320   1.082       .  S
C309        H321   1.082       .  S
C310        C311   1.366       .  A
C310        H322   1.082       .  S
C311        H323   1.079       .  S
C312       C2037   1.542       .  S
C313       C2051   1.505       .  S
C314       C2023   1.518       .  S
C315       C2009   1.513       .  S
N326        C331   1.356       .  A
N326        C330   1.362   1_455  A
N326        H358   1.032       .  S
N327        C334   1.354       .  A
N327        C335   1.351       .  A
N328        C333   1.364       .  A
N328        C332   1.357   1_455  A
N328        H359   1.036       .  S
N329        C336   1.355       .  A
N329        C337   1.359       .  A
C330        C338   1.383       .  A
C330        C346   1.427       .  A
C331        C347   1.432       .  A
C331        C339   1.387       .  A
C332        C340   1.387       .  A
C332        C349   1.432       .  A
C333        C348   1.434       .  A
C333        C341   1.388       .  A
C334        C346   1.417       .  A
C334        C342   1.385       .  A
C335        C349   1.418       .  A
C335        C343   1.387       .  A
C336        C344   1.387       .  A
C336        C347   1.427       .  A
C337        C345   1.386       .  A
C337        C348   1.427       .  A
C338        C339   1.368   1_655  A
C338        H350   1.082       .  S
C339        H351   1.072       .  S
C340        C341   1.376   1_655  A
C340        H352   1.080       .  S
C341        H353   1.080       .  S
C342        C343   1.368       .  A
C342        H354   1.079       .  S
C343        H355   1.081       .  S
C344        C345   1.371       .  A
C344        H356   1.082       .  S
C345        H357   1.081       .  S
C346       C1981   1.519       .  S
C347       C1995   1.516       .  S
C348       C1953   1.533       .  S
C349       C1970   1.514       .  S
N360        C365   1.359       .  A
N360        C364   1.351       .  A
N360        H392   1.042       .  S
N361        C368   1.346       .  A
N361        C369   1.351       .  A
N362        C367   1.354       .  A
N362        C366   1.360       .  A
N362        H393   1.041       .  S
N363        C370   1.355       .  A
N363        C371   1.349       .  A
C364        C372   1.384       .  A
C364        C380   1.415       .  A
C365        C381   1.422       .  A
C365        C373   1.386       .  A
C366        C374   1.388       .  A
C366        C383   1.429       .  A
C367        C382   1.420       .  A
C367        C375   1.386       .  A
C368        C380   1.407       .  A
C368        C376   1.386       .  A
C369        C383   1.411       .  A
C369        C377   1.385       .  A
C370        C378   1.385       .  A
C370        C381   1.418       .  A
C371        C379   1.387       .  A
C371        C382   1.414       .  A
C372        C373   1.377       .  A
C372        H384   1.077       .  S
C373        H385   1.082       .  S
C374        C375   1.381       .  A
C374        H386   1.081       .  S
C375        H387   1.082       .  S
C376        C377   1.377       .  A
C376        H388   1.080       .  S
C377        H389   1.082       .  S
C378        C379   1.379       .  A
C378        H390   1.082       .  S
C379        H391   1.082       .  S
C380       C2460   1.494       .  S
C381       C2572   1.531       .  S
C382       C1925   1.502       .  S
C383       C1942   1.521       .  S
N394        C399   1.363       .  A
N394        C398   1.358       .  A
N394        H426   1.041       .  S
N395        C402   1.352       .  A
N395        C403   1.354       .  A
N396        C401   1.352       .  A
N396        C400   1.356       .  A
N396        H427   1.041       .  S
N397        C404   1.350       .  A
N397        C405   1.347       .  A
C398        C406   1.385       .  A
C398        C414   1.427       .  A
C399        C415   1.430       .  A
C399        C407   1.386       .  A
C400        C408   1.387       .  A
C400        C417   1.417       .  A
C401        C416   1.407       .  A
C401        C409   1.381       .  A
C402        C414   1.418       .  A
C402        C410   1.385       .  A
C403        C417   1.420       .  A
C403        C411   1.385       .  A
C404        C412   1.387       .  A
C404        C415   1.415       .  A
C405        C413   1.384       .  A
C405        C416   1.405       .  A
C406        C407   1.377       .  A
C406        H418   1.079       .  S
C407        H419   1.082       .  S
C408        C409   1.372       .  A
C408        H420   1.083       .  S
C409        H421   1.081       .  S
C410        C411   1.364       .  A
C410        H422   1.079       .  S
C411        H423   1.078       .  S
C412        C413   1.367       .  A
C412        H424   1.080       .  S
C413        H425   1.080       .  S
C414       C2432   1.515       .  S
C415       C2796   1.522       .  S
C416       C1897   1.492       .  S
C417       C1911   1.512       .  S
C428       C1841   1.605       .  S
C428       C1855   1.599       .  S
C428       C1869   1.610       .  S
C428       C1883   1.611       .  S
N429        N430   1.319       .  A
N429        N435   1.312       .  A
N429       Mn458   2.194   1_655  S
N430        C437   1.351       .  A
N431        N433   1.314       .  A
N431        N432   1.317       .  A
N431       Mn447   2.190   1_554  S
N432        C438   1.349       .  A
N433        N434   1.318       .  A
N433       Mn458   2.184   1_654  S
N434        C438   1.351       .  A
N435        N436   1.317       .  A
N435       Mn447   2.175       .  S
N436        C437   1.351       .  A
C437       C1886   1.470       .  S
C438       C1771   1.468       .  S
N439        N445   1.311       .  A
N439        N440   1.312       .  A
N439       Mn469   2.170   1_654  S
N440        C448   1.350       .  A
N441        N442   1.320       .  A
N441        N443   1.314       .  A
N441       Mn447   2.199       .  S
N442        C449   1.353       .  A
N443        N444   1.317       .  A
N443       Mn469   2.184   1_655  S
N444        C449   1.350       .  A
N445        N446   1.317       .  A
N445       Mn447   2.167   1_554  S
N446        C448   1.350       .  A
Mn447      Cl471   2.539   1_655  S
C448       C1827   1.471       .  S
C449       C1788   1.471       .  S
N450        N451   1.319       .  A
N450        N456   1.316       .  A
N450       Mn458   2.209   1_554  S
N451        C459   1.353       .  A
N452        N454   1.313       .  A
N452        N453   1.319       .  A
N452       Mn470   2.203       .  S
N453        C460   1.359       .  A
N454        N455   1.310       .  A
N454       Mn458   2.151       .  S
N455        C460   1.344       .  A
N456        N457   1.318       .  A
N456       Mn470   2.171   1_554  S
N457        C459   1.346       .  A
Mn458      Cl471   2.520       .  S
C459       C1760   1.473       .  S
C460       C1802   1.485       .  S
N461        N462   1.314       .  A
N461        N467   1.312       .  A
N461       Mn469   2.166       .  S
N462        C472   1.348       .  A
N463        N464   1.318       .  A
N463        N465   1.315       .  A
N463       Mn470   2.203   1_554  S
N464        C473   1.353       .  A
N465        N466   1.317       .  A
N465       Mn469   2.183   1_554  S
N466        C473   1.350       .  A
N467        N468   1.319       .  A
N467       Mn470   2.190       .  S
N468        C472   1.354       .  A
Mn469      Cl471   2.521       .  S
Mn470      Cl471   2.543       .  S
C472       C1813   1.479       .  S
C473       C1746   1.469       .  S
C474       C1830   1.595       .  S
C474       C1939   1.631       .  S
C474       C2040   1.618       .  S
C474       C2236   1.605       .  S
C475       C1816   1.599       .  S
C475       C1914   1.608       .  S
C475       C1998   1.601       .  S
C475       C2317   1.606       .  S
C476       C1729   1.604       .  S
C476       C1799   1.602       .  S
C476       C1900   1.599       .  S
C476       C2079   1.617       .  S
C477       C1715   1.620       .  S
C477       C1785   1.611       .  S
C477       C1984   1.610       .  S
C477       C2054   1.599       .  S
C478       C1687   1.607       .  S
C478       C1701   1.606       .  S
C478       C1774   1.599       .  S
C478       C1928   1.610       .  S
N479        C484   1.360       .  A
N479        C483   1.361       .  A
N479        H511   1.041       .  S
N480        C487   1.355       .  A
N480        C488   1.353       .  A
N481        C486   1.360       .  A
N481        C485   1.358       .  A
N481        H512   1.040       .  S
N482        C489   1.358       .  A
N482        C490   1.360       .  A
C483        C491   1.385       .  A
C483        C499   1.424       .  A
C484        C500   1.429       .  A
C484        C492   1.389       .  A
C485        C493   1.386       .  A
C485        C502   1.421       .  A
C486        C501   1.427       .  A
C486        C494   1.388       .  A
C487        C499   1.418       .  A
C487        C495   1.383       .  A
C488        C502   1.421       .  A
C488        C496   1.387       .  A
C489        C497   1.386       .  A
C489        C500   1.432       .  A
C490        C498   1.385       .  A
C490        C501   1.431       .  A
C491        C492   1.374       .  A
C491        H503   1.083       .  S
C492        H504   1.082       .  S
C493        C494   1.371       .  A
C493        H505   1.083       .  S
C494        H506   1.082       .  S
C495        C496   1.369       .  A
C495        H507   1.080       .  S
C496        H508   1.080       .  S
C497        C498   1.371       .  A
C497        H509   1.079       .  S
C498        H510   1.079       .  S
C499       C2390   1.520       .  S
C500       C2628   1.530       .  S
C501       C1718   1.532       .  S
C502       C1872   1.510       .  S
C513       C1673   1.583       .  S
C513       C1757   1.606       .  S
C513       C2068   1.630       .  S
C513       C2138   1.629       .  S
C514       C1743   1.602       .  S
C514       C2124   1.615       .  S
C514       C2205   1.617       .  S
C514       C2348   1.603       .  S
N515        C520   1.357   1_565  A
N515        C519   1.359       .  A
N515        H547   1.041       .  S
N516        C523   1.352       .  A
N516        C524   1.352       .  A
N517        C522   1.359   1_565  A
N517        C521   1.358       .  A
N517        H548   1.041       .  S
N518        C525   1.354       .  A
N518        C526   1.355       .  A
C519        C527   1.385       .  A
C519        C535   1.424       .  A
C520        C536   1.431       .  A
C520        C528   1.390       .  A
C521        C529   1.387       .  A
C521        C538   1.430       .  A
C522        C537   1.428       .  A
C522        C530   1.389       .  A
C523        C535   1.412       .  A
C523        C531   1.384       .  A
C524        C538   1.418       .  A
C524        C532   1.387       .  A
C525        C533   1.386       .  A
C525        C536   1.419       .  A
C526        C534   1.387       .  A
C526        C537   1.419       .  A
C527        C528   1.386   1_565  A
C527        H539   1.082       .  S
C528        H540   1.082       .  S
C529        C530   1.381   1_565  A
C529        H541   1.082       .  S
C530        H542   1.080       .  S
C531        C532   1.378       .  A
C531        H543   1.082       .  S
C532        H544   1.082       .  S
C533        C534   1.370       .  A
C533        H545   1.082       .  S
C534        H546   1.080       .  S
C535       C1659   1.517       .  S
C536       C1648   1.523       .  S
C537       C1631   1.517       .  S
C538       C1617   1.531       .  S
N549        C554   1.355       .  A
N549        C553   1.359       .  A
N549        H581   1.040       .  S
N550        C557   1.355       .  A
N550        C558   1.351       .  A
N551        C556   1.360       .  A
N551        C555   1.355       .  A
N551        H582   1.035       .  S
N552        C559   1.350       .  A
N552        C560   1.351       .  A
C553        C561   1.390       .  A
C553        C569   1.431       .  A
C554        C570   1.419       .  A
C554        C562   1.384       .  A
C555        C563   1.386       .  A
C555        C572   1.425       .  A
C556        C571   1.425       .  A
C556        C564   1.384       .  A
C557        C569   1.422       .  A
C557        C565   1.387       .  A
C558        C572   1.414       .  A
C558        C566   1.384       .  A
C559        C567   1.386       .  A
C559        C570   1.412       .  A
C560        C568   1.386       .  A
C560        C571   1.413       .  A
C561        C562   1.382       .  A
C561        H573   1.082       .  S
C562        H574   1.082       .  S
C563        C564   1.377       .  A
C563        H575   1.078       .  S
C564        H576   1.078       .  S
C565        C566   1.379       .  A
C565        H577   1.082       .  S
C566        H578   1.082       .  S
C567        C568   1.371       .  A
C567        H579   1.082       .  S
C568        H580   1.082       .  S
C569       C2502   1.534       .  S
C570       C2558   1.505       .  S
C571       C1603   1.509       .  S
C572       C1592   1.507       .  S
N583        C588   1.358       .  A
N583        C587   1.360       .  A
N583        H615   1.033       .  S
N584        C591   1.354       .  A
N584        C592   1.354       .  A
N585        C590   1.361       .  A
N585        C589   1.362       .  A
N585        H616   1.038       .  S
N586        C593   1.357       .  A
N586        C594   1.357       .  A
C587        C595   1.387       .  A
C587        C603   1.427       .  A
C588        C604   1.430       .  A
C588        C596   1.389       .  A
C589        C597   1.388       .  A
C589        C606   1.430       .  A
C590        C605   1.432       .  A
C590        C598   1.386       .  A
C591        C603   1.421       .  A
C591        C599   1.386       .  A
C592        C606   1.419       .  A
C592        C600   1.386       .  A
C593        C601   1.386       .  A
C593        C604   1.427       .  A
C594        C602   1.386       .  A
C594        C605   1.428       .  A
C595        C596   1.376       .  A
C595        H607   1.082       .  S
C596        H608   1.083       .  S
C597        C598   1.371       .  A
C597        H609   1.078       .  S
C598        H610   1.082       .  S
C599        C600   1.368       .  A
C599        H611   1.078       .  S
C600        H612   1.082       .  S
C601        C602   1.372       .  A
C601        H613   1.080       .  S
C602        H614   1.081       .  S
C603       C2418   1.514       .  S
C604       C2642   1.518       .  S
C605       C1575   1.530       .  S
C606       C1564   1.517       .  S
C617       C1533   1.613       .  S
C617       C1547   1.604       .  S
C617       C1578   1.618       .  S
C617       C2026   1.609       .  S
N618        N619   1.320       .  A
N618        N624   1.311       .  A
N618       Mn647   2.193       .  S
N619        C626   1.356       .  A
N620        N622   1.311       .  A
N620        N621   1.315       .  A
N620       Mn636   2.186   1_554  S
N621        C627   1.352       .  A
N622        N623   1.320       .  A
N622       Mn647   2.194   1_554  S
N623        C627   1.357       .  A
N624        N625   1.316       .  A
N624       Mn636   2.187       .  S
N625        C626   1.353       .  A
C626       C1477   1.502       .  S
C627       C1519   1.501       .  S
N628        N634   1.313       .  A
N628        N629   1.313       .  A
N628       Mn658   2.167   1_554  S
N629        C637   1.347       .  A
N630        N631   1.315       .  A
N630        N632   1.314       .  A
N630       Mn636   2.174   1_545  S
N631        C638   1.350       .  A
N632        N633   1.315       .  A
N632       Mn658   2.170       .  S
N633        C638   1.349       .  A
N634        N635   1.316       .  A
N634       Mn636   2.170   1_544  S
N635        C637   1.348       .  A
Mn636      Cl660   2.524       .  S
C637       C1435   1.460       .  S
C638       C1550   1.466       .  S
N639        N640   1.317       .  A
N639        N645   1.314       .  A
N639       Mn647   2.192   1_554  S
N640        C648   1.353       .  A
N641        N643   1.315       .  A
N641        N642   1.317       .  A
N641       Mn659   2.185       .  S
N642        C649   1.350       .  A
N643        N644   1.315       .  A
N643       Mn647   2.181       .  S
N644        C649   1.349       .  A
N645        N646   1.316       .  A
N645       Mn659   2.171   1_554  S
N646        C648   1.348       .  A
Mn647      Cl660   2.538       .  S
C648       C1463   1.472       .  S
C649       C1505   1.463       .  S
N650        N651   1.315       .  A
N650        N656   1.313       .  A
N650       Mn658   2.170       .  S
N651        C661   1.348       .  A
N652        N653   1.317       .  A
N652        N654   1.313       .  A
N652       Mn659   2.184   1_544  S
N653        C662   1.349       .  A
N654        N655   1.317       .  A
N654       Mn658   2.179   1_554  S
N655        C662   1.349       .  A
N656        N657   1.318       .  A
N656       Mn659   2.185   1_545  S
N657        C661   1.353       .  A
Mn658      Cl660   2.525   1_545  S
Mn659      Cl660   2.528       .  S
C661       C1491   1.474       .  S
C662       C1449   1.465       .  S
C663       C1410   1.591       .  S
C663       C1421   1.618       .  S
C663       C1522   1.593       .  S
C663       C1606   1.628       .  S
C664       C1393   1.616       .  S
C664       C1508   1.594       .  S
C664       C1662   1.620       .  S
C664       C2110   1.604       .  S
C665       C1494   1.596       .  S
C665       C1561   1.607       .  S
C665       C1645   1.619       .  S
C665       C2362   1.620       .  S
C666       C1351   1.630       .  S
C666       C1365   1.619       .  S
C666       C1379   1.618       .  S
C666       C1480   1.603       .  S
C667       C1466   1.600       .  S
C667       C1589   1.601       .  S
C667       C2093   1.620       .  S
C667       C2264   1.628       .  S
N668        C673   1.359       .  A
N668        C672   1.359       .  A
N668        H700   1.037       .  S
N669        C676   1.355       .  A
N669        C677   1.355       .  A
N670        C675   1.360       .  A
N670        C674   1.360       .  A
N670        H701   1.038       .  S
N671        C678   1.354       .  A
N671        C679   1.354       .  A
C672        C680   1.383       .  A
C672        C688   1.423       .  A
C673        C689   1.432       .  A
C673        C681   1.390       .  A
C674        C682   1.390       .  A
C674        C691   1.433       .  A
C675        C690   1.430       .  A
C675        C683   1.385       .  A
C676        C688   1.418       .  A
C676        C684   1.385       .  A
C677        C691   1.421       .  A
C677        C685   1.388       .  A
C678        C686   1.388       .  A
C678        C689   1.420       .  A
C679        C687   1.383       .  A
C679        C690   1.416       .  A
C680        C681   1.373       .  A
C680        H692   1.083       .  S
C681        H693   1.078       .  S
C682        C683   1.377       .  A
C682        H694   1.079       .  S
C683        H695   1.082       .  S
C684        C685   1.368       .  A
C684        H696   1.082       .  S
C685        H697   1.081       .  S
C686        C687   1.365       .  A
C686        H698   1.079       .  S
C687        H699   1.081       .  S
C688       C2373   1.515       .  S
C689       C2768   1.512       .  S
C690       C1396   1.523       .  S
C691       C1382   1.519       .  S
C702       C1452   1.599       .  S
C702       C2194   1.621       .  S
C702       C2292   1.603       .  S
C702       C2334   1.623       .  S
C703       C1340   1.611       .  S
C703       C1438   1.603       .  S
C703       C2012   1.604       .  S
C703       C2177   1.596       .  S
N704        C709   1.362   1_455  A
N704        C708   1.361       .  A
N704        H736   1.036       .  S
N705        C712   1.351       .  A
N705        C713   1.353       .  A
N706        C711   1.353   1_455  A
N706        C710   1.351       .  A
N706        H737   1.039       .  S
N707        C714   1.351       .  A
N707        C715   1.353       .  A
C708        C716   1.390       .  A
C708        C724   1.437       .  A
C709        C725   1.432       .  A
C709        C717   1.384       .  A
C710        C718   1.383       .  A
C710        C727   1.408       .  A
C711        C726   1.420       .  A
C711        C719   1.390       .  A
C712        C724   1.421       .  A
C712        C720   1.390       .  A
C713        C727   1.410       .  A
C713        C721   1.383       .  A
C714        C722   1.386       .  A
C714        C725   1.416       .  A
C715        C723   1.385       .  A
C715        C726   1.416       .  A
C716        C717   1.369   1_455  A
C716        H728   1.078       .  S
C717        H729   1.080       .  S
C718        C719   1.378   1_455  A
C718        H730   1.083       .  S
C719        H731   1.082       .  S
C720        C721   1.362       .  A
C720        H732   1.080       .  S
C721        H733   1.081       .  S
C722        C723   1.376       .  A
C722        H734   1.082       .  S
C723        H735   1.081       .  S
C724       C1676   1.514       .  S
C725       C1704   1.522       .  S
C726       C1323   1.510       .  S
C727       C1312   1.500       .  S
N738        C743   1.359   1_565  A
N738        C742   1.356       .  A
N738        H770   1.036       .  S
N739        C746   1.353       .  A
N739        C747   1.355       .  A
N740        C745   1.358   1_565  A
N740        C744   1.363       .  A
N740        H771   1.036       .  S
N741        C748   1.355       .  A
N741        C749   1.352       .  A
C742        C750   1.389       .  A
C742        C758   1.424       .  A
C743        C759   1.425       .  A
C743        C751   1.385       .  A
C744        C752   1.389       .  A
C744        C761   1.432       .  A
C745        C760   1.426       .  A
C745        C753   1.385   1_545  A
C746        C758   1.423       .  A
C746        C754   1.387       .  A
C747        C761   1.422       .  A
C747        C755   1.386       .  A
C748        C756   1.382       .  A
C748        C759   1.418       .  A
C749        C757   1.388       .  A
C749        C760   1.424       .  A
C750        C751   1.366   1_565  A
C750        H762   1.079       .  S
C751        H763   1.081       .  S
C752        C753   1.367       .  A
C752        H764   1.077       .  S
C753        H765   1.082   1_565  S
C754        C755   1.371       .  A
C754        H766   1.081       .  S
C755        H767   1.082       .  S
C756        C757   1.362       .  A
C756        H768   1.080       .  S
C757        H769   1.078       .  S
C758       C1424   1.506       .  S
C759       C1337   1.519       .  S
C760       C1295   1.510       .  S
C761       C1281   1.522       .  S
N772        C777   1.357       .  A
N772        C776   1.357       .  A
N772        H804   1.035       .  S
N773        C780   1.350       .  A
N773        C781   1.352       .  A
N774        C779   1.358       .  A
N774        C778   1.357       .  A
N774        H805   1.040       .  S
N775        C782   1.352       .  A
N775        C783   1.351       .  A
C776        C784   1.387       .  A
C776        C792   1.425       .  A
C777        C793   1.424       .  A
C777        C785   1.386       .  A
C778        C786   1.386       .  A
C778        C795   1.426       .  A
C779        C794   1.424       .  A
C779        C787   1.388       .  A
C780        C792   1.415       .  A
C780        C788   1.387       .  A
C781        C795   1.415       .  A
C781        C789   1.383       .  A
C782        C790   1.385       .  A
C782        C793   1.413       .  A
C783        C791   1.388       .  A
C783        C794   1.417       .  A
C784        C785   1.373       .  A
C784        H796   1.082       .  S
C785        H797   1.078       .  S
C786        C787   1.374       .  A
C786        H798   1.082       .  S
C787        H799   1.077       .  S
C788        C789   1.371       .  A
C788        H800   1.076       .  S
C789        H801   1.081       .  S
C790        C791   1.365       .  A
C790        H802   1.082       .  S
C791        H803   1.082       .  S
C792       C1256   1.508       .  S
C793       C1267   1.507       .  S
C794       C2656   1.509       .  S
C795       C2474   1.525       .  S
N806        C811   1.360       .  A
N806        C810   1.358       .  A
N806        H838   1.031       .  S
N807        C814   1.348       .  A
N807        C815   1.350       .  A
N808        C813   1.359       .  A
N808        C812   1.362       .  A
N808        H839   1.041       .  S
N809        C816   1.357       .  A
N809        C817   1.354       .  A
C810        C818   1.387       .  A
C810        C826   1.432       .  A
C811        C827   1.430       .  A
C811        C819   1.386       .  A
C812        C820   1.384       .  A
C812        C829   1.429       .  A
C813        C828   1.427       .  A
C813        C821   1.385       .  A
C814        C826   1.413       .  A
C814        C822   1.388       .  A
C815        C829   1.408       .  A
C815        C823   1.385       .  A
C816        C824   1.387       .  A
C816        C827   1.426       .  A
C817        C825   1.387       .  A
C817        C828   1.422       .  A
C818        C819   1.374       .  A
C818        H830   1.075       .  S
C819        H831   1.082       .  S
C820        C821   1.383       .  A
C820        H832   1.079       .  S
C821        H833   1.083       .  S
C822        C823   1.369       .  A
C822        H834   1.083       .  S
C823        H835   1.082       .  S
C824        C825   1.373       .  A
C824        H836   1.082       .  S
C825        H837   1.082       .  S
C826       C1225   1.508       .  S
C827       C1239   1.522       .  S
C828       C2779   1.519       .  S
C829       C2516   1.519       .  S
C840       C1211   1.603       .  S
C840       C1253   1.604       .  S
C840       C1298   1.600       .  S
C840       C2219   1.591       .  S
N841        N842   1.311       .  A
N841        N847   1.310       .  A
N841       Mn870   2.168   1_645  S
N842        C849   1.350       .  A
N843        N845   1.314       .  A
N843        N844   1.320       .  A
N843       Mn859   2.185       .  S
N844        C850   1.352       .  A
N845        N846   1.315       .  A
N845       Mn870   2.178   1_655  S
N846        C850   1.347       .  A
N847        N848   1.314       .  A
N847       Mn859   2.157   1_545  S
N848        C849   1.350       .  A
C849       C1155   1.475       .  S
C850       C1141   1.472       .  S
N851        N857   1.315       .  A
N851        N852   1.318       .  A
N851       Mn881   2.193   1_655  S
N852        C860   1.351       .  A
N853        N854   1.315       .  A
N853        N855   1.312       .  A
N853       Mn859   2.176   1_545  S
N854        C861   1.349       .  A
N855        N856   1.318       .  A
N855       Mn881   2.185   1_645  S
N856        C861   1.355       .  A
N857        N858   1.317       .  A
N857       Mn859   2.178       .  S
N858        C860   1.348       .  A
Mn859      Cl883   2.543   1_655  S
C860       C1197   1.465       .  S
C861       C1214   1.489       .  S
N862        N863   1.313       .  A
N862        N868   1.313       .  A
N862       Mn870   2.174       .  S
N863        C871   1.349       .  A
N864        N866   1.314       .  A
N864        N865   1.324       .  A
N864       Mn882   2.220   1_545  S
N865        C872   1.358       .  A
N866        N867   1.316       .  A
N866       Mn870   2.170   1_545  S
N867        C872   1.345       .  A
N868        N869   1.323       .  A
N868       Mn882   2.218       .  S
N869        C871   1.360       .  A
Mn870      Cl883   2.513       .  S
C871       C1172   1.507       .  S
C872       C1113   1.479       .  S
N873        N874   1.322       .  A
N873        N879   1.318       .  A
N873       Mn881   2.202   1_545  S
N874        C884   1.352       .  A
N875        N876   1.318       .  A
N875        N877   1.314       .  A
N875       Mn882   2.211       .  S
N876        C885   1.357       .  A
N877        N878   1.315       .  A
N877       Mn881   2.164       .  S
N878        C885   1.347       .  A
N879        N880   1.316       .  A
N879       Mn882   2.198   1_545  S
N880        C884   1.349       .  A
Mn881      Cl883   2.536       .  S
Mn882      Cl883   2.546       .  S
C884       C1130   1.474       .  S
C885       C1183   1.488       .  S
C886       C1099   1.613       .  S
C886       C1200   1.597       .  S
C886       C1284   1.607       .  S
C886       C1326   1.603       .  S
C887       C1186   1.599       .  S
C887       C1228   1.596       .  S
C887       C1309   1.612       .  S
C887       C2306   1.609       .  S
C888       C1085   1.636       .  S
C888       C1169   1.606       .  S
C888       C1242   1.629       .  S
C888       C1620   1.612       .  S
C889       C1071   1.647       .  S
C889       C1158   1.575       .  S
C889       C1270   1.631       .  S
C889       C1967   1.594       .  S
C890       C1029   1.607       .  S
C890       C1043   1.615       .  S
C890       C1057   1.612       .  S
C890       C1144   1.594       .  S
N891        C896   1.359       .  A
N891        C895   1.355       .  A
N891        H923   1.039       .  S
N892        C899   1.354       .  A
N892        C900   1.355       .  A
N893        C898   1.360       .  A
N893        C897   1.363       .  A
N893        H924   1.036       .  S
N894        C901   1.356       .  A
N894        C902   1.353       .  A
C895        C903   1.385       .  A
C895        C911   1.419       .  A
C896        C912   1.428       .  A
C896        C904   1.389       .  A
C897        C905   1.385       .  A
C897        C914   1.433       .  A
C898        C913   1.432       .  A
C898        C906   1.386       .  A
C899        C911   1.416       .  A
C899        C907   1.385       .  A
C900        C914   1.422       .  A
C900        C908   1.388       .  A
C901        C909   1.383       .  A
C901        C912   1.419       .  A
C902        C910   1.390       .  A
C902        C913   1.423       .  A
C903        C904   1.380       .  A
C903        H915   1.083       .  S
C904        H916   1.082       .  S
C905        C906   1.372       .  A
C905        H917   1.077       .  S
C906        H918   1.078       .  S
C907        C908   1.367       .  A
C907        H919   1.082       .  S
C908        H920   1.081       .  S
C909        C910   1.367       .  A
C909        H921   1.080       .  S
C910        H922   1.080       .  S
C911       C1102   1.509       .  S
C912       C1060   1.525       .  S
C913       C2404   1.514       .  S
C914       C2544   1.523       .  S
C925       C1127   1.620       .  S
C925       C2163   1.595       .  S
C925       C2250   1.625       .  S
C925       C2278   1.615       .  S
C926       C1116   1.606       .  S
C926       C1634   1.612       .  S
C926       C1956   1.625       .  S
C926       C2149   1.611       .  S
N927        C932   1.361       .  A
N927        C931   1.361   1_455  A
N927        H959   1.025       .  S
N928        C935   1.355       .  A
N928        C936   1.357       .  A
N929        C934   1.357       .  A
N929        C933   1.358   1_455  A
N929        H960   1.020       .  S
N930        C937   1.355       .  A
N930        C938   1.354       .  A
C931        C939   1.389   1_655  A
C931        C947   1.436       .  A
C932        C948   1.429       .  A
C932        C940   1.382       .  A
C933        C941   1.387       .  A
C933        C950   1.429       .  A
C934        C949   1.431       .  A
C934        C942   1.389       .  A
C935        C947   1.429       .  A
C935        C943   1.389       .  A
C936        C950   1.425       .  A
C936        C944   1.385       .  A
C937        C945   1.385       .  A
C937        C948   1.420       .  A
C938        C946   1.388       .  A
C938        C949   1.425       .  A
C939        C940   1.378       .  A
C939        H951   1.079   1_455  S
C940        H952   1.080       .  S
C941        C942   1.373   1_655  A
C941        H953   1.082       .  S
C942        H954   1.082       .  S
C943        C944   1.366       .  A
C943        H955   1.081       .  S
C944        H956   1.082       .  S
C945        C946   1.369       .  A
C945        H957   1.082       .  S
C946        H958   1.081       .  S
C947       C1032   1.519       .  S
C948       C1088   1.518       .  S
C949       C1732   1.511       .  S
C950       C1858   1.518       .  S
N961        C966   1.357   1_565  A
N961        C965   1.357       .  A
N961        H993   1.042       .  S
N962        C969   1.355       .  A
N962        C970   1.355       .  A
N963        C968   1.362   1_565  A
N963        C967   1.362       .  A
N963        H994   1.036       .  S
N964        C971   1.353       .  A
N964        C972   1.351       .  A
C965        C973   1.383       .  A
C965        C981   1.415       .  A
C966        C982   1.418       .  A
C966        C974   1.381       .  A
C967        C975   1.389       .  A
C967        C984   1.435       .  A
C968        C983   1.434       .  A
C968        C976   1.387   1_545  A
C969        C981   1.416       .  A
C969        C977   1.383       .  A
C970        C984   1.425       .  A
C970        C978   1.390       .  A
C971        C979   1.385       .  A
C971        C982   1.412       .  A
C972        C980   1.388       .  A
C972        C983   1.417       .  A
C973        C974   1.377   1_565  A
C973        H985   1.083       .  S
C974        H986   1.077       .  S
C975        C976   1.375       .  A
C975        H987   1.081       .  S
C976        H988   1.081   1_565  S
C977        C978   1.372       .  A
C977        H989   1.082       .  S
C978        H990   1.081       .  S
C979        C980   1.376       .  A
C979        H991   1.082       .  S
C980        H992   1.082       .  S
C981       C1354   1.515       .  S
C982       C1536   1.515       .  S
C983       C1074   1.517       .  S
C984       C1046   1.522       .  S
N995       C1000   1.360   1_556  A
N995        C999   1.352       .  A
N995       H1027   1.043       .  S
N996       C1003   1.348       .  A
N996       C1004   1.354       .  A
N997       C1002   1.355   1_556  A
N997       C1001   1.362       .  A
N997       H1028   1.042       .  S
N998       C1005   1.354       .  A
N998       C1006   1.349       .  A
C999       C1007   1.379       .  A
C999       C1015   1.416       .  A
C1000      C1016   1.420       .  A
C1000      C1008   1.385       .  A
C1001      C1009   1.389       .  A
C1001      C1018   1.435       .  A
C1002      C1017   1.426       .  A
C1002      C1010   1.387   1_554  A
C1003      C1015   1.410       .  A
C1003      C1011   1.385       .  A
C1004      C1018   1.420       .  A
C1004      C1012   1.387       .  A
C1005      C1013   1.385       .  A
C1005      C1016   1.413       .  A
C1006      C1014   1.387       .  A
C1006      C1017   1.412       .  A
C1007      C1008   1.377   1_556  A
C1007      H1019   1.073       .  S
C1008      H1020   1.079       .  S
C1009      C1010   1.384       .  A
C1009      H1021   1.082       .  S
C1010      H1022   1.082   1_556  S
C1011      C1012   1.381       .  A
C1011      H1023   1.082       .  S
C1012      H1024   1.082       .  S
C1013      C1014   1.369       .  A
C1013      H1025   1.080       .  S
C1014      H1026   1.081       .  S
C1015      C1844   1.504       .  S
C1016      C1690   1.514       .  S
C1017      C1407   1.509       .  S
C1018      C1368   1.543       .  S
C1029      C1030   1.447       .  A
C1029      C1034   1.433       .  A
C1030      C1031   1.424       .  A
C1030      C1035   1.449       .  S
C1031      C1032   1.410       .  A
C1031      C1038   1.451       .  S
C1032      C1033   1.411       .  A
C1033      C1034   1.411       .  A
C1033      C1036   1.452       .  S
C1034      C1037   1.450       .  S
C1035      N1042   1.157       .  T
C1036      N1041   1.157       .  T
C1037      N1039   1.158       .  T
C1038      N1040   1.157       .  T
C1043      C1044   1.449       .  A
C1043      C1048   1.447       .  A
C1044      C1045   1.420       .  A
C1044      C1049   1.450       .  S
C1045      C1046   1.403       .  A
C1045      C1052   1.455       .  S
C1046      C1047   1.407       .  A
C1047      C1048   1.426       .  A
C1047      C1050   1.455       .  S
C1048      C1051   1.445       .  S
C1049      N1056   1.157       .  T
C1050      N1055   1.157       .  T
C1051      N1053   1.158       .  T
C1052      N1054   1.157       .  T
C1057      C1058   1.444       .  A
C1057      C1062   1.440       .  A
C1058      C1059   1.426       .  A
C1058      C1063   1.450       .  S
C1059      C1060   1.418       .  A
C1059      C1066   1.451       .  S
C1060      C1061   1.406       .  A
C1061      C1062   1.404       .  A
C1061      C1064   1.451       .  S
C1062      C1065   1.448       .  S
C1063      N1070   1.157       .  T
C1064      N1069   1.157       .  T
C1065      N1067   1.157       .  T
C1066      N1068   1.157       .  T
C1071      C1072   1.433       .  A
C1071      C1076   1.451       .  A
C1072      C1073   1.409       .  A
C1072      C1077   1.450       .  S
C1073      C1074   1.400       .  A
C1073      C1080   1.451       .  S
C1074      C1075   1.409       .  A
C1075      C1076   1.429       .  A
C1075      C1078   1.456       .  S
C1076      C1079   1.446       .  S
C1077      N1084   1.158       .  T
C1078      N1083   1.157       .  T
C1079      N1081   1.158       .  T
C1080      N1082   1.157       .  T
C1085      C1086   1.447       .  A
C1085      C1090   1.450       .  A
C1086      C1087   1.423       .  A
C1086      C1091   1.451       .  S
C1087      C1088   1.404       .  A
C1087      C1094   1.451       .  S
C1088      C1089   1.404       .  A
C1089      C1090   1.428       .  A
C1089      C1092   1.455       .  S
C1090      C1093   1.445       .  S
C1091      N1098   1.158       .  T
C1092      N1097   1.157       .  T
C1093      N1095   1.158       .  T
C1094      N1096   1.157       .  T
C1099      C1100   1.449       .  A
C1099      C1104   1.452       .  A
C1100      C1101   1.417       .  A
C1100      C1105   1.449       .  S
C1101      C1102   1.399       .  A
C1101      C1108   1.456       .  S
C1102      C1103   1.402       .  A
C1103      C1104   1.423       .  A
C1103      C1106   1.457       .  S
C1104      C1107   1.446       .  S
C1105      N1112   1.157       .  T
C1106      N1111   1.157       .  T
C1107      N1109   1.158       .  T
C1108      N1110   1.157       .  T
C1113      C1114   1.398       .  A
C1113      C1118   1.399       .  A
C1114      C1115   1.415       .  A
C1114      C1119   1.458       .  S
C1115      C1116   1.449       .  A
C1115      C1122   1.448       .  S
C1116      C1117   1.449       .  A
C1117      C1118   1.417       .  A
C1117      C1120   1.450       .  S
C1118      C1121   1.455       .  S
C1119      N1126   1.158   1_545  T
C1120      N1125   1.158       .  T
C1121      N1123   1.157       .  T
C1122      N1124   1.157       .  T
C1127      C1128   1.436       .  A
C1127      C1132   1.432       .  A
C1128      C1129   1.414       .  A
C1128      C1133   1.449       .  S
C1129      C1130   1.400       .  A
C1129      C1136   1.454       .  S
C1130      C1131   1.401       .  A
C1131      C1132   1.409       .  A
C1131      C1134   1.456       .  S
C1132      C1135   1.441       .  S
C1133      N1140   1.157       .  T
C1134      N1139   1.158       .  T
C1135      N1137   1.154       .  T
C1136      N1138   1.157       .  T
C1141      C1142   1.403       .  A
C1141      C1146   1.396       .  A
C1142      C1143   1.413       .  A
C1142      C1147   1.454       .  S
C1143      C1144   1.449       .  A
C1143      C1150   1.451       .  S
C1144      C1145   1.439       .  A
C1145      C1146   1.399       .  A
C1145      C1148   1.446       .  S
C1146      C1149   1.452       .  S
C1147      N1154   1.158       .  T
C1148      N1153   1.157       .  T
C1149      N1151   1.157       .  T
C1150      N1152   1.158       .  T
C1155      C1156   1.407       .  A
C1155      C1160   1.407       .  A
C1156      C1157   1.403       .  A
C1156      C1161   1.458       .  S
C1157      C1158   1.435       .  A
C1157      C1164   1.447       .  S
C1158      C1159   1.437       .  A
C1159      C1160   1.407       .  A
C1159      C1162   1.452       .  S
C1160      C1163   1.456       .  S
C1161      N1168   1.158       .  T
C1162      N1167   1.157       .  T
C1163      N1165   1.157       .  T
C1164      N1166   1.156       .  T
C1169      C1170   1.440       .  A
C1169      C1174   1.445       .  A
C1170      C1171   1.423       .  A
C1170      C1175   1.440       .  S
C1171      C1172   1.415       .  A
C1171      C1178   1.457       .  S
C1172      C1173   1.406       .  A
C1173      C1174   1.413       .  A
C1173      C1176   1.456       .  S
C1174      C1177   1.449       .  S
C1175      N1182   1.156       .  T
C1176      N1181   1.158       .  T
C1177      N1179   1.157       .  T
C1178      N1180   1.157       .  T
C1183      C1184   1.401       .  A
C1183      C1188   1.413       .  A
C1184      C1185   1.406       .  A
C1184      C1189   1.458       .  S
C1185      C1186   1.443       .  A
C1185      C1192   1.447       .  S
C1186      C1187   1.444       .  A
C1187      C1188   1.416       .  A
C1187      C1190   1.454       .  S
C1188      C1191   1.455       .  S
C1189      N1196   1.158       .  T
C1190      N1195   1.158       .  T
C1191      N1193   1.158       .  T
C1192      N1194   1.156       .  T
C1197      C1198   1.396       .  A
C1197      C1202   1.397       .  A
C1198      C1199   1.412       .  A
C1198      C1203   1.455       .  S
C1199      C1200   1.451       .  A
C1199      C1206   1.453       .  S
C1200      C1201   1.444       .  A
C1201      C1202   1.406       .  A
C1201      C1204   1.447       .  S
C1202      C1205   1.458       .  S
C1203      N1210   1.157       .  T
C1204      N1209   1.157       .  T
C1205      N1207   1.157       .  T
C1206      N1208   1.158       .  T
C1211      C1212   1.446       .  A
C1211      C1216   1.442       .  A
C1212      C1213   1.409       .  A
C1212      C1217   1.450       .  S
C1213      C1214   1.402       .  A
C1213      C1220   1.458       .  S
C1214      C1215   1.411       .  A
C1215      C1216   1.415       .  A
C1215      C1218   1.456       .  S
C1216      C1219   1.453       .  S
C1217      N1224   1.157       .  T
C1218      N1223   1.158       .  T
C1219      N1221   1.157       .  T
C1220      N1222   1.158       .  T
C1225      C1226   1.400       .  A
C1225      C1230   1.413       .  A
C1226      C1227   1.414       .  A
C1226      C1231   1.455       .  S
C1227      C1228   1.447       .  A
C1227      C1234   1.448       .  S
C1228      C1229   1.436       .  A
C1229      C1230   1.417       .  A
C1229      C1232   1.452       .  S
C1230      C1233   1.453       .  S
C1231      N1238   1.157       .  T
C1232      N1237   1.158       .  T
C1233      N1235   1.157       .  T
C1234      N1236   1.157       .  T
C1239      C1240   1.403       .  A
C1239      C1244   1.403       .  A
C1240      C1241   1.428       .  A
C1240      C1245   1.457       .  S
C1241      C1242   1.454       .  A
C1241      C1248   1.445       .  S
C1242      C1243   1.453       .  A
C1243      C1244   1.422       .  A
C1243      C1246   1.454       .  S
C1244      C1247   1.453       .  S
C1245      N1252   1.157       .  T
C1246      N1251   1.158       .  T
C1247      N1249   1.157       .  T
C1248      N1250   1.158       .  T
C1253      C1254   1.443       .  A
C1253      C1258   1.448       .  A
C1254      C1255   1.415       .  A
C1254      C1259   1.448       .  S
C1255      C1256   1.406       .  A
C1255      C1262   1.457       .  S
C1256      C1257   1.401       .  A
C1257      C1258   1.418       .  A
C1257      C1260   1.454       .  S
C1258      C1261   1.446       .  S
C1259      N1266   1.157       .  T
C1260      N1265   1.157       .  T
C1261      N1263   1.158       .  T
C1262      N1264   1.157       .  T
C1267      C1268   1.399       .  A
C1267      C1272   1.393       .  A
C1268      C1269   1.421       .  A
C1268      C1273   1.460       .  S
C1269      C1270   1.467       .  A
C1269      C1276   1.450       .  S
C1270      C1271   1.456       .  A
C1271      C1272   1.415       .  A
C1271      C1274   1.443       .  S
C1272      C1275   1.456       .  S
C1273      N1280   1.158       .  T
C1274      N1279   1.158       .  T
C1275      N1277   1.157       .  T
C1276      N1278   1.159       .  T
C1281      C1282   1.412       .  A
C1281      C1286   1.408       .  A
C1282      C1283   1.418       .  A
C1282      C1287   1.451       .  S
C1283      C1284   1.438       .  A
C1283      C1290   1.450       .  S
C1284      C1285   1.447       .  A
C1285      C1286   1.420       .  A
C1285      C1288   1.450       .  S
C1286      C1289   1.454       .  S
C1287      N1294   1.157       .  T
C1288      N1293   1.157       .  T
C1289      N1291   1.157       .  T
C1290      N1292   1.158       .  T
C1295      C1296   1.410       .  A
C1295      C1300   1.410       .  A
C1296      C1297   1.402       .  A
C1296      C1301   1.450       .  S
C1297      C1298   1.433       .  A
C1297      C1304   1.447       .  S
C1298      C1299   1.446       .  A
C1299      C1300   1.410       .  A
C1299      C1302   1.450       .  S
C1300      C1303   1.451       .  S
C1301      N1308   1.157       .  T
C1302      N1307   1.158       .  T
C1303      N1305   1.157       .  T
C1304      N1306   1.158       .  T
C1309      C1310   1.450       .  A
C1309      C1314   1.448       .  A
C1310      C1311   1.420       .  A
C1310      C1315   1.441       .  S
C1311      C1312   1.397       .  A
C1311      C1318   1.457       .  S
C1312      C1313   1.397       .  A
C1313      C1314   1.416       .  A
C1313      C1316   1.457       .  S
C1314      C1317   1.445       .  S
C1315      N1322   1.156       .  T
C1316      N1321   1.157       .  T
C1317      N1319   1.157       .  T
C1318      N1320   1.157       .  T
C1323      C1324   1.410       .  A
C1323      C1328   1.405       .  A
C1324      C1325   1.418       .  A
C1324      C1329   1.447       .  S
C1325      C1326   1.444       .  A
C1325      C1332   1.450       .  S
C1326      C1327   1.441       .  A
C1327      C1328   1.401       .  A
C1327      C1330   1.450       .  S
C1328      C1331   1.452       .  S
C1329      N1336   1.156       .  T
C1330      N1335   1.158       .  T
C1331      N1333   1.157       .  T
C1332      N1334   1.157       .  T
C1337      C1338   1.408       .  A
C1337      C1342   1.413       .  A
C1338      C1339   1.403       .  A
C1338      C1343   1.451       .  S
C1339      C1340   1.441       .  A
C1339      C1346   1.449       .  S
C1340      C1341   1.448       .  A
C1341      C1342   1.418       .  A
C1341      C1344   1.450       .  S
C1342      C1345   1.451       .  S
C1343      N1350   1.157       .  T
C1344      N1349   1.157       .  T
C1345      N1347   1.157       .  T
C1346      N1348   1.158       .  T
C1351      C1352   1.456       .  A
C1351      C1356   1.454       .  A
C1352      C1353   1.426       .  A
C1352      C1357   1.447       .  S
C1353      C1354   1.401       .  A
C1353      C1360   1.456       .  S
C1354      C1355   1.400       .  A
C1355      C1356   1.422       .  A
C1355      C1358   1.456       .  S
C1356      C1359   1.451       .  S
C1357      N1364   1.158       .  T
C1358      N1363   1.157       .  T
C1359      N1361   1.157       .  T
C1360      N1362   1.157       .  T
C1365      C1366   1.452       .  A
C1365      C1370   1.440       .  A
C1366      C1367   1.421       .  A
C1366      C1371   1.452       .  S
C1367      C1368   1.406       .  A
C1367      C1374   1.450       .  S
C1368      C1369   1.420       .  A
C1369      C1370   1.430       .  A
C1369      C1372   1.451       .  S
C1370      C1373   1.450       .  S
C1371      N1378   1.158       .  T
C1372      N1377   1.158       .  T
C1373      N1375   1.157       .  T
C1374      N1376   1.155       .  T
C1379      C1380   1.442       .  A
C1379      C1384   1.452       .  A
C1380      C1381   1.419       .  A
C1380      C1385   1.448       .  S
C1381      C1382   1.411       .  A
C1381      C1388   1.452       .  S
C1382      C1383   1.401       .  A
C1383      C1384   1.420       .  A
C1383      C1386   1.454       .  S
C1384      C1387   1.445       .  S
C1385      N1392   1.158       .  T
C1386      N1391   1.157       .  T
C1387      N1389   1.158       .  T
C1388      N1390   1.157       .  T
C1393      C1394   1.443       .  A
C1393      C1398   1.446       .  A
C1394      C1395   1.403       .  A
C1394      C1399   1.448       .  S
C1395      C1396   1.404       .  A
C1395      C1402   1.452       .  S
C1396      C1397   1.419       .  A
C1397      C1398   1.426       .  A
C1397      C1400   1.451       .  S
C1398      C1401   1.452       .  S
C1399      N1406   1.157       .  T
C1400      N1405   1.157       .  T
C1401      N1403   1.158       .  T
C1402      N1404   1.157       .  T
C1407      C1408   1.397       .  A
C1407      C1412   1.411       .  A
C1408      C1409   1.410       .  A
C1408      C1413   1.453       .  S
C1409      C1410   1.452       .  A
C1409      C1416   1.452       .  S
C1410      C1411   1.430       .  A
C1411      C1412   1.419       .  A
C1411      C1414   1.448       .  S
C1412      C1415   1.452       .  S
C1413      N1420   1.156       .  T
C1414      N1419   1.156       .  T
C1415      N1417   1.157       .  T
C1416      N1418   1.158       .  T
C1421      C1422   1.446       .  A
C1421      C1426   1.451       .  A
C1422      C1423   1.414       .  A
C1422      C1427   1.454       .  S
C1423      C1424   1.402       .  A
C1423      C1430   1.453       .  S
C1424      C1425   1.403       .  A
C1425      C1426   1.419       .  A
C1425      C1428   1.459       .  S
C1426      C1429   1.447       .  S
C1427      N1434   1.158       .  T
C1428      N1433   1.157       .  T
C1429      N1431   1.158       .  T
C1430      N1432   1.157       .  T
C1435      C1436   1.389       .  A
C1435      C1440   1.398       .  A
C1436      C1437   1.404       .  A
C1436      C1441   1.462       .  S
C1437      C1438   1.447       .  A
C1437      C1444   1.436       .  S
C1438      C1439   1.452       .  A
C1439      C1440   1.409       .  A
C1439      C1442   1.454       .  S
C1440      C1443   1.455       .  S
C1441      N1448   1.157       .  T
C1442      N1447   1.158       .  T
C1443      N1445   1.157       .  T
C1444      N1446   1.153       .  T
C1449      C1450   1.392       .  A
C1449      C1454   1.389       .  A
C1450      C1451   1.412       .  A
C1450      C1455   1.460       .  S
C1451      C1452   1.448       .  A
C1451      C1458   1.440       .  S
C1452      C1453   1.452       .  A
C1453      C1454   1.413       .  A
C1453      C1456   1.445       .  S
C1454      C1457   1.458       .  S
C1455      N1462   1.157   1_554  T
C1456      N1461   1.157       .  T
C1457      N1459   1.157       .  T
C1458      N1460   1.155       .  T
C1463      C1464   1.405       .  A
C1463      C1468   1.395       .  A
C1464      C1465   1.411       .  A
C1464      C1469   1.454       .  S
C1465      C1466   1.455       .  A
C1465      C1472   1.460       .  S
C1466      C1467   1.437       .  A
C1467      C1468   1.395       .  A
C1467      C1470   1.450       .  S
C1468      C1471   1.451       .  S
C1469      N1476   1.157       .  T
C1470      N1475   1.157       .  T
C1471      N1473   1.157       .  T
C1472      N1474   1.158       .  T
C1477      C1478   1.408       .  A
C1477      C1482   1.408       .  A
C1478      C1479   1.420       .  A
C1478      C1483   1.456       .  S
C1479      C1480   1.448       .  A
C1479      C1486   1.447       .  S
C1480      C1481   1.444       .  A
C1481      C1482   1.413       .  A
C1481      C1484   1.449       .  S
C1482      C1485   1.457       .  S
C1483      N1490   1.157       .  T
C1484      N1489   1.157       .  T
C1485      N1487   1.158       .  T
C1486      N1488   1.157       .  T
C1491      C1492   1.399       .  A
C1491      C1496   1.403       .  A
C1492      C1493   1.408       .  A
C1492      C1497   1.456       .  S
C1493      C1494   1.446       .  A
C1493      C1500   1.450       .  S
C1494      C1495   1.448       .  A
C1495      C1496   1.411       .  A
C1495      C1498   1.454       .  S
C1496      C1499   1.456       .  S
C1497      N1504   1.157       .  T
C1498      N1503   1.158       .  T
C1499      N1501   1.157       .  T
C1500      N1502   1.158       .  T
C1505      C1506   1.398       .  A
C1505      C1510   1.395       .  A
C1506      C1507   1.403       .  A
C1506      C1511   1.459       .  S
C1507      C1508   1.445       .  A
C1507      C1514   1.450       .  S
C1508      C1509   1.451       .  A
C1509      C1510   1.411       .  A
C1509      C1512   1.454       .  S
C1510      C1513   1.454       .  S
C1511      N1518   1.158       .  T
C1512      N1517   1.158       .  T
C1513      N1515   1.157       .  T
C1514      N1516   1.158       .  T
C1519      C1520   1.415       .  A
C1519      C1524   1.409       .  A
C1520      C1521   1.424       .  A
C1520      C1525   1.454       .  S
C1521      C1522   1.436       .  A
C1521      C1528   1.442       .  S
C1522      C1523   1.431       .  A
C1523      C1524   1.399       .  A
C1523      C1526   1.446       .  S
C1524      C1527   1.455       .  S
C1525      N1532   1.157       .  T
C1526      N1531   1.157       .  T
C1527      N1529   1.158       .  T
C1528      N1530   1.157       .  T
C1533      C1534   1.445       .  A
C1533      C1538   1.445       .  A
C1534      C1535   1.422       .  A
C1534      C1539   1.451       .  S
C1535      C1536   1.405       .  A
C1535      C1542   1.452       .  S
C1536      C1537   1.407       .  A
C1537      C1538   1.423       .  A
C1537      C1540   1.452       .  S
C1538      C1541   1.452       .  S
C1539      N1546   1.158       .  T
C1540      N1545   1.157       .  T
C1541      N1543   1.157       .  T
C1542      N1544   1.157       .  T
C1547      C1548   1.452       .  A
C1547      C1552   1.445       .  A
C1548      C1549   1.408       .  A
C1548      C1553   1.452       .  S
C1549      C1550   1.399       .  A
C1549      C1556   1.457       .  S
C1550      C1551   1.393       .  A
C1551      C1552   1.406       .  A
C1551      C1554   1.460       .  S
C1552      C1555   1.436       .  S
C1553      N1560   1.158       .  T
C1554      N1559   1.158       .  T
C1555      N1557   1.153       .  T
C1556      N1558   1.157       .  T
C1561      C1562   1.440       .  A
C1561      C1566   1.448       .  A
C1562      C1563   1.418       .  A
C1562      C1567   1.450       .  S
C1563      C1564   1.412       .  A
C1563      C1570   1.453       .  S
C1564      C1565   1.403       .  A
C1565      C1566   1.416       .  A
C1565      C1568   1.452       .  S
C1566      C1569   1.450       .  S
C1567      N1574   1.158       .  T
C1568      N1573   1.157       .  T
C1569      N1571   1.157       .  T
C1570      N1572   1.157       .  T
C1575      C1576   1.410       .  A
C1575      C1580   1.415       .  A
C1576      C1577   1.408       .  A
C1576      C1581   1.451       .  S
C1577      C1578   1.440       .  A
C1577      C1584   1.449       .  S
C1578      C1579   1.446       .  A
C1579      C1580   1.424       .  A
C1579      C1582   1.448       .  S
C1580      C1583   1.451       .  S
C1581      N1588   1.157       .  T
C1582      N1587   1.157       .  T
C1583      N1585   1.157       .  T
C1584      N1586   1.158       .  T
C1589      C1590   1.443       .  A
C1589      C1594   1.450       .  A
C1590      C1591   1.420       .  A
C1590      C1595   1.448       .  S
C1591      C1592   1.406       .  A
C1591      C1598   1.455       .  S
C1592      C1593   1.401       .  A
C1593      C1594   1.418       .  A
C1593      C1596   1.453       .  S
C1594      C1597   1.451       .  S
C1595      N1602   1.158       .  T
C1596      N1601   1.157       .  T
C1597      N1599   1.157       .  T
C1598      N1600   1.157       .  T
C1603      C1604   1.407       .  A
C1603      C1608   1.402       .  A
C1604      C1605   1.426       .  A
C1604      C1609   1.453       .  S
C1605      C1606   1.442       .  A
C1605      C1612   1.444       .  S
C1606      C1607   1.437       .  A
C1607      C1608   1.416       .  A
C1607      C1610   1.448       .  S
C1608      C1611   1.450       .  S
C1609      N1616   1.157       .  T
C1610      N1615   1.157       .  T
C1611      N1613   1.157       .  T
C1612      N1614   1.157       .  T
C1617      C1618   1.418       .  A
C1617      C1622   1.408       .  A
C1618      C1619   1.426       .  A
C1618      C1623   1.452       .  S
C1619      C1620   1.432       .  A
C1619      C1626   1.449       .  S
C1620      C1621   1.457       .  A
C1621      C1622   1.420       .  A
C1621      C1624   1.455       .  S
C1622      C1625   1.459       .  S
C1623      N1630   1.158       .  T
C1624      N1629   1.158       .  T
C1625      N1627   1.158       .  T
C1626      N1628   1.157       .  T
C1631      C1632   1.407       .  A
C1631      C1636   1.411       .  A
C1632      C1633   1.422       .  A
C1632      C1637   1.452       .  S
C1633      C1634   1.450       .  A
C1633      C1640   1.449       .  S
C1634      C1635   1.435       .  A
C1635      C1636   1.414       .  A
C1635      C1638   1.449       .  S
C1636      C1639   1.451       .  S
C1637      N1644   1.157       .  T
C1638      N1643   1.158       .  T
C1639      N1641   1.157       .  T
C1640      N1642   1.157       .  T
C1645      C1646   1.446       .  A
C1645      C1650   1.446       .  A
C1646      C1647   1.424       .  A
C1646      C1651   1.451       .  S
C1647      C1648   1.417       .  A
C1647      C1654   1.451       .  S
C1648      C1649   1.403       .  A
C1649      C1650   1.404       .  A
C1649      C1652   1.451       .  S
C1650      C1653   1.448       .  S
C1651      N1658   1.157       .  T
C1652      N1657   1.157       .  T
C1653      N1655   1.158       .  T
C1654      N1656   1.157       .  T
C1659      C1660   1.407       .  A
C1659      C1664   1.400       .  A
C1660      C1661   1.429       .  A
C1660      C1665   1.454       .  S
C1661      C1662   1.448       .  A
C1661      C1668   1.446       .  S
C1662      C1663   1.452       .  A
C1663      C1664   1.421       .  A
C1663      C1666   1.451       .  S
C1664      C1667   1.454       .  S
C1665      N1672   1.157       .  T
C1666      N1671   1.157       .  T
C1667      N1669   1.157       .  T
C1668      N1670   1.158       .  T
C1673      C1674   1.451       .  A
C1673      C1678   1.419       .  A
C1674      C1675   1.410       .  A
C1674      C1679   1.456       .  S
C1675      C1676   1.405       .  A
C1675      C1682   1.455       .  S
C1676      C1677   1.418       .  A
C1677      C1678   1.414       .  A
C1677      C1680   1.451       .  S
C1678      C1681   1.448       .  S
C1679      N1686   1.158       .  T
C1680      N1685   1.157       .  T
C1681      N1683   1.157       .  T
C1682      N1684   1.157       .  T
C1687      C1688   1.435       .  A
C1687      C1692   1.447       .  A
C1688      C1689   1.411       .  A
C1688      C1693   1.449       .  S
C1689      C1690   1.410       .  A
C1689      C1696   1.452       .  S
C1690      C1691   1.411       .  A
C1691      C1692   1.422       .  A
C1691      C1694   1.451       .  S
C1692      C1695   1.452       .  S
C1693      N1700   1.158       .  T
C1694      N1699   1.157       .  T
C1695      N1697   1.158       .  T
C1696      N1698   1.157       .  T
C1701      C1702   1.443       .  A
C1701      C1706   1.443       .  A
C1702      C1703   1.408       .  A
C1702      C1707   1.446       .  S
C1703      C1704   1.406       .  A
C1703      C1710   1.452       .  S
C1704      C1705   1.415       .  A
C1705      C1706   1.418       .  A
C1705      C1708   1.446       .  S
C1706      C1709   1.452       .  S
C1707      N1714   1.158       .  T
C1708      N1713   1.156       .  T
C1709      N1711   1.157       .  T
C1710      N1712   1.157       .  T
C1715      C1716   1.434       .  A
C1715      C1720   1.450       .  A
C1716      C1717   1.407       .  A
C1716      C1721   1.448       .  S
C1717      C1718   1.413       .  A
C1717      C1724   1.448       .  S
C1718      C1719   1.414       .  A
C1719      C1720   1.428       .  A
C1719      C1722   1.451       .  S
C1720      C1723   1.447       .  S
C1721      N1728   1.158       .  T
C1722      N1727   1.157       .  T
C1723      N1725   1.157       .  T
C1724      N1726   1.156       .  T
C1729      C1730   1.443       .  A
C1729      C1734   1.451       .  A
C1730      C1731   1.424       .  A
C1730      C1735   1.448       .  S
C1731      C1732   1.408       .  A
C1731      C1738   1.454       .  S
C1732      C1733   1.400       .  A
C1733      C1734   1.411       .  A
C1733      C1736   1.457       .  S
C1734      C1737   1.453       .  S
C1735      N1742   1.158       .  T
C1736      N1741   1.157       .  T
C1737      N1739   1.157       .  T
C1738      N1740   1.157       .  T
C1743      C1744   1.446       .  A
C1743      C1748   1.449       .  A
C1744      C1745   1.403       .  A
C1744      C1749   1.449       .  S
C1745      C1746   1.396       .  A
C1745      C1752   1.459       .  S
C1746      C1747   1.398       .  A
C1747      C1748   1.417       .  A
C1747      C1750   1.453       .  S
C1748      C1751   1.452       .  S
C1749      N1756   1.157       .  T
C1750      N1755   1.157       .  T
C1751      N1753   1.158       .  T
C1752      N1754   1.157       .  T
C1757      C1758   1.456       .  A
C1757      C1762   1.438       .  A
C1758      C1759   1.409       .  A
C1758      C1763   1.448       .  S
C1759      C1760   1.388       .  A
C1759      C1766   1.459       .  S
C1760      C1761   1.399       .  A
C1761      C1762   1.418       .  A
C1761      C1764   1.457       .  S
C1762      C1765   1.438       .  S
C1763      N1770   1.158       .  T
C1764      N1769   1.157       .  T
C1765      N1767   1.155       .  T
C1766      N1768   1.157       .  T
C1771      C1772   1.400       .  A
C1771      C1776   1.397       .  A
C1772      C1773   1.415       .  A
C1772      C1777   1.453       .  S
C1773      C1774   1.450       .  A
C1773      C1780   1.452       .  S
C1774      C1775   1.443       .  A
C1775      C1776   1.401       .  A
C1775      C1778   1.449       .  S
C1776      C1779   1.456       .  S
C1777      N1784   1.157       .  T
C1778      N1783   1.157       .  T
C1779      N1781   1.157       .  T
C1780      N1782   1.158       .  T
C1785      C1786   1.450       .  A
C1785      C1790   1.452       .  A
C1786      C1787   1.408       .  A
C1786      C1791   1.447       .  S
C1787      C1788   1.395       .  A
C1787      C1794   1.461       .  S
C1788      C1789   1.396       .  A
C1789      C1790   1.418       .  A
C1789      C1792   1.454       .  S
C1790      C1793   1.451       .  S
C1791      N1798   1.157       .  T
C1792      N1797   1.157       .  T
C1793      N1795   1.158       .  T
C1794      N1796   1.158       .  T
C1799      C1800   1.447       .  A
C1799      C1804   1.448       .  A
C1800      C1801   1.413       .  A
C1800      C1805   1.438       .  S
C1801      C1802   1.397       .  A
C1801      C1808   1.461       .  S
C1802      C1803   1.409       .  A
C1803      C1804   1.411       .  A
C1803      C1806   1.457       .  S
C1804      C1807   1.455       .  S
C1805      N1812   1.155       .  T
C1806      N1811   1.158       .  T
C1807      N1809   1.158       .  T
C1808      N1810   1.157       .  T
C1813      C1814   1.405       .  A
C1813      C1818   1.403       .  A
C1814      C1815   1.414       .  A
C1814      C1819   1.456       .  S
C1815      C1816   1.447       .  A
C1815      C1822   1.451       .  S
C1816      C1817   1.439       .  A
C1817      C1818   1.404       .  A
C1817      C1820   1.446       .  S
C1818      C1821   1.456       .  S
C1819      N1826   1.157       .  T
C1820      N1825   1.156       .  T
C1821      N1823   1.158       .  T
C1822      N1824   1.157       .  T
C1827      C1828   1.406       .  A
C1827      C1832   1.400       .  A
C1828      C1829   1.409       .  A
C1828      C1833   1.454       .  S
C1829      C1830   1.451       .  A
C1829      C1836   1.459       .  S
C1830      C1831   1.439       .  A
C1831      C1832   1.398       .  A
C1831      C1834   1.451       .  S
C1832      C1835   1.456       .  S
C1833      N1840   1.157       .  T
C1834      N1839   1.157       .  T
C1835      N1837   1.157       .  T
C1836      N1838   1.158       .  T
C1841      C1842   1.443       .  A
C1841      C1846   1.444       .  A
C1842      C1843   1.414       .  A
C1842      C1847   1.453       .  S
C1843      C1844   1.404       .  A
C1843      C1850   1.453       .  S
C1844      C1845   1.406       .  A
C1845      C1846   1.419       .  A
C1845      C1848   1.451       .  S
C1846      C1849   1.453       .  S
C1847      N1854   1.158       .  T
C1848      N1853   1.157       .  T
C1849      N1851   1.157       .  T
C1850      N1852   1.157       .  T
C1855      C1856   1.442       .  A
C1855      C1860   1.443       .  A
C1856      C1857   1.421       .  A
C1856      C1861   1.447       .  S
C1857      C1858   1.409       .  A
C1857      C1864   1.454       .  S
C1858      C1859   1.406       .  A
C1859      C1860   1.416       .  A
C1859      C1862   1.455       .  S
C1860      C1863   1.450       .  S
C1861      N1868   1.158       .  T
C1862      N1867   1.157       .  T
C1863      N1865   1.157       .  T
C1864      N1866   1.157       .  T
C1869      C1870   1.436       .  A
C1869      C1874   1.452       .  A
C1870      C1871   1.404       .  A
C1870      C1875   1.446       .  S
C1871      C1872   1.406       .  A
C1871      C1878   1.447       .  S
C1872      C1873   1.405       .  A
C1873      C1874   1.416       .  A
C1873      C1876   1.451       .  S
C1874      C1877   1.448       .  S
C1875      N1882   1.158       .  T
C1876      N1881   1.157       .  T
C1877      N1879   1.158       .  T
C1878      N1880   1.157       .  T
C1883      C1884   1.436       .  A
C1883      C1888   1.455       .  A
C1884      C1885   1.400       .  A
C1884      C1889   1.436       .  S
C1885      C1886   1.394       .  A
C1885      C1892   1.458       .  S
C1886      C1887   1.398       .  A
C1887      C1888   1.420       .  A
C1887      C1890   1.454       .  S
C1888      C1891   1.450       .  S
C1889      N1896   1.153       .  T
C1890      N1895   1.157       .  T
C1891      N1893   1.157       .  T
C1892      N1894   1.157       .  T
C1897      C1898   1.412       .  A
C1897      C1902   1.397       .  A
C1898      C1899   1.420       .  A
C1898      C1903   1.452       .  S
C1899      C1900   1.437       .  A
C1899      C1906   1.450       .  S
C1900      C1901   1.442       .  A
C1901      C1902   1.401       .  A
C1901      C1904   1.453       .  S
C1902      C1905   1.452       .  S
C1903      N1910   1.157       .  T
C1904      N1909   1.158       .  T
C1905      N1907   1.157       .  T
C1906      N1908   1.157       .  T
C1911      C1912   1.407       .  A
C1911      C1916   1.408       .  A
C1912      C1913   1.414       .  A
C1912      C1917   1.452       .  S
C1913      C1914   1.447       .  A
C1913      C1920   1.449       .  S
C1914      C1915   1.439       .  A
C1915      C1916   1.405       .  A
C1915      C1918   1.447       .  S
C1916      C1919   1.451       .  S
C1917      N1924   1.157       .  T
C1918      N1923   1.157       .  T
C1919      N1921   1.157       .  T
C1920      N1922   1.157       .  T
C1925      C1926   1.400       .  A
C1925      C1930   1.398       .  A
C1926      C1927   1.421       .  A
C1926      C1931   1.457       .  S
C1927      C1928   1.453       .  A
C1927      C1934   1.448       .  S
C1928      C1929   1.450       .  A
C1929      C1930   1.416       .  A
C1929      C1932   1.451       .  S
C1930      C1933   1.454       .  S
C1931      N1938   1.157       .  T
C1932      N1937   1.157       .  T
C1933      N1935   1.157       .  T
C1934      N1936   1.158       .  T
C1939      C1940   1.450       .  A
C1939      C1944   1.439       .  A
C1940      C1941   1.437       .  A
C1940      C1945   1.453       .  S
C1941      C1942   1.421       .  A
C1941      C1948   1.450       .  S
C1942      C1943   1.399       .  A
C1943      C1944   1.394       .  A
C1943      C1946   1.450       .  S
C1944      C1947   1.453       .  S
C1945      N1952   1.158       .  T
C1946      N1951   1.157       .  T
C1947      N1949   1.158       .  T
C1948      N1950   1.157       .  T
C1953      C1954   1.409       .  A
C1953      C1958   1.406       .  A
C1954      C1955   1.429       .  A
C1954      C1959   1.456       .  S
C1955      C1956   1.452       .  A
C1955      C1962   1.448       .  S
C1956      C1957   1.448       .  A
C1957      C1958   1.425       .  A
C1957      C1960   1.449       .  S
C1958      C1961   1.453       .  S
C1959      N1966   1.157       .  T
C1960      N1965   1.157       .  T
C1961      N1963   1.157       .  T
C1962      N1964   1.158       .  T
C1967      C1968   1.452       .  A
C1967      C1972   1.426       .  A
C1968      C1969   1.410       .  A
C1968      C1973   1.452       .  S
C1969      C1970   1.405       .  A
C1969      C1976   1.460       .  S
C1970      C1971   1.418       .  A
C1971      C1972   1.418       .  A
C1971      C1974   1.451       .  S
C1972      C1975   1.453       .  S
C1973      N1980   1.158       .  T
C1974      N1979   1.157       .  T
C1975      N1977   1.157       .  T
C1976      N1978   1.158       .  T
C1981      C1982   1.403       .  A
C1981      C1986   1.407       .  A
C1982      C1983   1.416       .  A
C1982      C1987   1.457       .  S
C1983      C1984   1.447       .  A
C1983      C1990   1.448       .  S
C1984      C1985   1.446       .  A
C1985      C1986   1.426       .  A
C1985      C1988   1.446       .  S
C1986      C1989   1.454       .  S
C1987      N1994   1.157       .  T
C1988      N1993   1.158       .  T
C1989      N1991   1.157       .  T
C1990      N1992   1.157       .  T
C1995      C1996   1.407       .  A
C1995      C2000   1.411       .  A
C1996      C1997   1.416       .  A
C1996      C2001   1.454       .  S
C1997      C1998   1.445       .  A
C1997      C2004   1.452       .  S
C1998      C1999   1.439       .  A
C1999      C2000   1.415       .  A
C1999      C2002   1.451       .  S
C2000      C2003   1.453       .  S
C2001      N2008   1.157       .  T
C2002      N2007   1.158       .  T
C2003      N2005   1.157       .  T
C2004      N2006   1.157       .  T
C2009      C2010   1.411       .  A
C2009      C2014   1.402       .  A
C2010      C2011   1.423       .  A
C2010      C2015   1.454       .  S
C2011      C2012   1.441       .  A
C2011      C2018   1.448       .  S
C2012      C2013   1.447       .  A
C2013      C2014   1.418       .  A
C2013      C2016   1.452       .  S
C2014      C2017   1.453       .  S
C2015      N2022   1.157       .  T
C2016      N2021   1.157       .  T
C2017      N2019   1.157       .  T
C2018      N2020   1.158       .  T
C2023      C2024   1.409       .  A
C2023      C2028   1.404       .  A
C2024      C2025   1.423       .  A
C2024      C2029   1.455       .  S
C2025      C2026   1.442       .  A
C2025      C2032   1.446       .  S
C2026      C2027   1.448       .  A
C2027      C2028   1.420       .  A
C2027      C2030   1.450       .  S
C2028      C2031   1.454       .  S
C2029      N2036   1.157       .  T
C2030      N2035   1.157       .  T
C2031      N2033   1.157       .  T
C2032      N2034   1.158       .  T
C2037      C2038   1.426       .  A
C2037      C2042   1.411       .  A
C2038      C2039   1.432       .  A
C2038      C2043   1.450       .  S
C2039      C2040   1.439       .  A
C2039      C2046   1.440       .  S
C2040      C2041   1.443       .  A
C2041      C2042   1.402       .  A
C2041      C2044   1.450       .  S
C2042      C2045   1.450       .  S
C2043      N2050   1.157       .  T
C2044      N2049   1.157       .  T
C2045      N2047   1.158       .  T
C2046      N2048   1.158       .  T
C2051      C2052   1.410       .  A
C2051      C2056   1.407       .  A
C2052      C2053   1.420       .  A
C2052      C2057   1.453       .  S
C2053      C2054   1.440       .  A
C2053      C2060   1.451       .  S
C2054      C2055   1.439       .  A
C2055      C2056   1.413       .  A
C2055      C2058   1.453       .  S
C2056      C2059   1.452       .  S
C2057      N2064   1.157       .  T
C2058      N2063   1.158       .  T
C2059      N2061   1.157       .  T
C2060      N2062   1.157       .  T
C2065      C2066   1.413       .  A
C2065      C2070   1.404       .  A
C2066      C2067   1.428       .  A
C2066      C2071   1.449       .  S
C2067      C2068   1.436       .  A
C2067      C2074   1.447       .  S
C2068      C2069   1.434       .  A
C2069      C2070   1.405       .  A
C2069      C2072   1.451       .  S
C2070      C2073   1.450       .  S
C2071      N2078   1.157       .  T
C2072      N2077   1.158       .  T
C2073      N2075   1.157       .  T
C2074      N2076   1.158       .  T
C2079      C2080   1.442       .  A
C2079      C2084   1.443       .  A
C2080      C2081   1.405       .  A
C2080      C2085   1.450       .  S
C2081      C2082   1.410       .  A
C2081      C2088   1.451       .  S
C2082      C2083   1.420       .  A
C2083      C2084   1.427       .  A
C2083      C2086   1.451       .  S
C2084      C2087   1.448       .  S
C2085      N2092   1.158       .  T
C2086      N2091   1.157       .  T
C2087      N2089   1.157       .  T
C2088      N2090   1.158       .  T
C2093      C2094   1.441       .  A
C2093      C2098   1.440       .  A
C2094      C2095   1.399       .  A
C2094      C2099   1.451       .  S
C2095      C2096   1.405       .  A
C2095      C2102   1.450       .  S
C2096      C2097   1.429       .  A
C2097      C2098   1.438       .  A
C2097      C2100   1.451       .  S
C2098      C2101   1.440       .  S
C2099      N2106   1.158       .  T
C2100      N2105   1.158       .  T
C2101      N2103   1.157       .  T
C2102      N2104   1.158       .  T
C2107      C2108   1.408       .  A
C2107      C2112   1.410       .  A
C2108      C2109   1.420       .  A
C2108      C2113   1.452       .  S
C2109      C2110   1.449       .  A
C2109      C2116   1.450       .  S
C2110      C2111   1.435       .  A
C2111      C2112   1.411       .  A
C2111      C2114   1.449       .  S
C2112      C2115   1.451       .  S
C2113      N2120   1.157       .  T
C2114      N2119   1.158       .  T
C2115      N2117   1.157       .  T
C2116      N2118   1.157       .  T
C2121      C2122   1.412       .  A
C2121      C2126   1.406       .  A
C2122      C2123   1.423       .  A
C2122      C2127   1.451       .  S
C2123      C2124   1.449       .  A
C2123      C2130   1.450       .  S
C2124      C2125   1.440       .  A
C2125      C2126   1.406       .  A
C2125      C2128   1.447       .  S
C2126      C2129   1.452       .  S
C2127      N2134   1.157       .  T
C2128      N2133   1.158       .  T
C2129      N2131   1.157       .  T
C2130      N2132   1.157       .  T
C2135      C2136   1.401       .  A
C2135      C2140   1.402       .  A
C2136      C2137   1.428       .  A
C2136      C2141   1.458       .  S
C2137      C2138   1.455       .  A
C2137      C2144   1.443       .  S
C2138      C2139   1.448       .  A
C2139      C2140   1.423       .  A
C2139      C2142   1.449       .  S
C2140      C2143   1.453       .  S
C2141      N2148   1.157       .  T
C2142      N2147   1.157       .  T
C2143      N2145   1.157       .  T
C2144      N2146   1.158       .  T
C2149      C2150   1.444       .  A
C2149      C2154   1.444       .  A
C2150      C2151   1.409       .  A
C2150      C2155   1.447       .  S
C2151      C2152   1.409       .  A
C2151      C2158   1.452       .  S
C2152      C2153   1.416       .  A
C2153      C2154   1.421       .  A
C2153      C2156   1.451       .  S
C2154      C2157   1.449       .  S
C2155      N2162   1.158       .  T
C2156      N2161   1.157       .  T
C2157      N2159   1.157       .  T
C2158      N2160   1.157       .  T
C2163      C2164   1.437       .  A
C2163      C2168   1.442       .  A
C2164      C2165   1.413       .  A
C2164      C2169   1.449       .  S
C2165      C2166   1.409       .  A
C2165      C2172   1.452       .  S
C2166      C2167   1.407       .  A
C2167      C2168   1.419       .  A
C2167      C2170   1.452       .  S
C2168      C2171   1.447       .  S
C2169      N2176   1.158       .  T
C2170      N2175   1.157       .  T
C2171      N2173   1.157       .  T
C2172      N2174   1.157       .  T
C2177      C2178   1.443       .  A
C2177      C2182   1.446       .  A
C2178      C2179   1.408       .  A
C2178      C2183   1.453       .  S
C2179      C2180   1.400       .  A
C2179      C2186   1.454       .  S
C2180      C2181   1.402       .  A
C2181      C2182   1.415       .  A
C2181      C2184   1.452       .  S
C2182      C2185   1.454       .  S
C2183      N2190   1.158       .  T
C2184      N2189   1.157       .  T
C2185      N2187   1.157       .  T
C2186      N2188   1.157       .  T
C2191      C2192   1.399       .  A
C2191      C2196   1.394       .  A
C2192      C2193   1.423       .  A
C2192      C2197   1.459       .  S
C2193      C2194   1.459       .  A
C2193      C2200   1.447       .  S
C2194      C2195   1.448       .  A
C2195      C2196   1.411       .  A
C2195      C2198   1.446       .  S
C2196      C2199   1.456       .  S
C2197      N2204   1.157       .  T
C2198      N2203   1.157       .  T
C2199      N2201   1.157       .  T
C2200      N2202   1.158       .  T
C2205      C2206   1.448       .  A
C2205      C2210   1.449       .  A
C2206      C2207   1.419       .  A
C2206      C2211   1.447       .  S
C2207      C2208   1.402       .  A
C2207      C2214   1.457       .  S
C2208      C2209   1.406       .  A
C2209      C2210   1.427       .  A
C2209      C2212   1.455       .  S
C2210      C2213   1.446       .  S
C2211      N2218   1.157       .  T
C2212      N2217   1.157       .  T
C2213      N2215   1.158       .  T
C2214      N2216   1.157       .  T
C2219      C2220   1.435       .  A
C2219      C2224   1.447       .  A
C2220      C2221   1.412       .  A
C2220      C2225   1.450       .  S
C2221      C2222   1.410       .  A
C2221      C2228   1.451       .  S
C2222      C2223   1.403       .  A
C2223      C2224   1.410       .  A
C2223      C2226   1.454       .  S
C2224      C2227   1.452       .  S
C2225      N2232   1.158       .  T
C2226      N2231   1.157       .  T
C2227      N2229   1.157       .  T
C2228      N2230   1.157       .  T
C2233      C2234   1.400       .  A
C2233      C2238   1.404       .  A
C2234      C2235   1.417       .  A
C2234      C2239   1.454       .  S
C2235      C2236   1.450       .  A
C2235      C2242   1.450       .  S
C2236      C2237   1.450       .  A
C2237      C2238   1.422       .  A
C2237      C2240   1.447       .  S
C2238      C2241   1.456       .  S
C2239      N2246   1.157       .  T
C2240      N2245   1.158       .  T
C2241      N2243   1.157       .  T
C2242      N2244   1.157       .  T
C2247      C2248   1.398       .  A
C2247      C2252   1.406       .  A
C2248      C2249   1.408       .  A
C2248      C2253   1.452       .  S
C2249      C2250   1.448       .  A
C2249      C2256   1.451       .  S
C2250      C2251   1.452       .  A
C2251      C2252   1.429       .  A
C2251      C2254   1.443       .  S
C2252      C2255   1.457       .  S
C2253      N2260   1.157       .  T
C2254      N2259   1.158       .  T
C2255      N2257   1.157       .  T
C2256      N2258   1.158       .  T
C2261      C2262   1.412       .  A
C2261      C2266   1.391       .  A
C2262      C2263   1.433       .  A
C2262      C2267   1.449       .  S
C2263      C2264   1.458       .  A
C2263      C2270   1.452       .  S
C2264      C2265   1.435       .  A
C2265      C2266   1.390       .  A
C2265      C2268   1.451       .  S
C2266      C2269   1.446       .  S
C2267      N2274   1.156       .  T
C2268      N2273   1.158       .  T
C2269      N2271   1.156       .  T
C2270      N2272   1.158       .  T
C2275      C2276   1.405       .  A
C2275      C2280   1.405       .  A
C2276      C2277   1.418       .  A
C2276      C2281   1.452       .  S
C2277      C2278   1.443       .  A
C2277      C2284   1.452       .  S
C2278      C2279   1.449       .  A
C2279      C2280   1.419       .  A
C2279      C2282   1.455       .  S
C2280      C2283   1.452       .  S
C2281      N2288   1.157       .  T
C2282      N2287   1.158       .  T
C2283      N2285   1.157       .  T
C2284      N2286   1.158       .  T
C2289      C2290   1.415       .  A
C2289      C2294   1.406       .  A
C2290      C2291   1.421       .  A
C2290      C2295   1.454       .  S
C2291      C2292   1.436       .  A
C2291      C2298   1.448       .  S
C2292      C2293   1.451       .  A
C2293      C2294   1.418       .  A
C2293      C2296   1.455       .  S
C2294      C2297   1.453       .  S
C2295      N2302   1.158       .  T
C2296      N2301   1.158       .  T
C2297      N2299   1.156       .  T
C2298      N2300   1.157       .  T
C2303      C2304   1.409       .  A
C2303      C2308   1.406       .  A
C2304      C2305   1.419       .  A
C2304      C2309   1.450       .  S
C2305      C2306   1.447       .  A
C2305      C2312   1.450       .  S
C2306      C2307   1.439       .  A
C2307      C2308   1.405       .  A
C2307      C2310   1.449       .  S
C2308      C2311   1.452       .  S
C2309      N2316   1.156       .  T
C2310      N2315   1.158       .  T
C2311      N2313   1.157       .  T
C2312      N2314   1.158       .  T
C2317      C2318   1.447       .  A
C2317      C2322   1.446       .  A
C2318      C2319   1.422       .  A
C2318      C2323   1.446       .  S
C2319      C2320   1.404       .  A
C2319      C2326   1.455       .  S
C2320      C2321   1.401       .  A
C2321      C2322   1.415       .  A
C2321      C2324   1.457       .  S
C2322      C2325   1.447       .  S
C2323      N2330   1.158       .  T
C2324      N2329   1.157       .  T
C2325      N2327   1.157       .  T
C2326      N2328   1.157       .  T
C2331      C2332   1.401       .  A
C2331      C2336   1.411       .  A
C2332      C2333   1.422       .  A
C2332      C2337   1.457       .  S
C2333      C2334   1.454       .  A
C2333      C2340   1.443       .  S
C2334      C2335   1.440       .  A
C2335      C2336   1.418       .  A
C2335      C2338   1.449       .  S
C2336      C2339   1.452       .  S
C2337      N2344   1.157       .  T
C2338      N2343   1.158       .  T
C2339      N2341   1.157       .  T
C2340      N2342   1.158       .  T
C2345      C2346   1.406       .  A
C2345      C2350   1.414       .  A
C2346      C2347   1.419       .  A
C2346      C2351   1.453       .  S
C2347      C2348   1.448       .  A
C2347      C2354   1.450       .  S
C2348      C2349   1.435       .  A
C2349      C2350   1.417       .  A
C2349      C2352   1.451       .  S
C2350      C2353   1.452       .  S
C2351      N2358   1.157       .  T
C2352      N2357   1.158       .  T
C2353      N2355   1.157       .  T
C2354      N2356   1.157       .  T
C2359      C2360   1.408       .  A
C2359      C2364   1.402       .  A
C2360      C2361   1.429       .  A
C2360      C2365   1.454       .  S
C2361      C2362   1.447       .  A
C2361      C2368   1.446       .  S
C2362      C2363   1.451       .  A
C2363      C2364   1.423       .  A
C2363      C2366   1.450       .  S
C2364      C2367   1.454       .  S
C2365      N2372   1.157       .  T
C2366      N2371   1.157       .  T
C2367      N2369   1.157       .  T
C2368      N2370   1.158       .  T
C2373      C2374   1.405       .  A
C2373      C2378   1.401       .  A
C2374      C2375   1.423       .  A
C2374      C2379   1.455       .  S
C2375      C2376   1.448       .  A
C2375      C2382   1.447       .  S
C2376      C2377   1.450       .  A
C2377      C2378   1.417       .  A
C2377      C2380   1.449       .  S
C2378      C2381   1.456       .  S
C2379      N2386   1.157       .  T
C2380      N2385   1.157       .  T
C2381      N2383   1.157       .  T
C2382      N2384   1.158       .  T
C2387      C2388   1.435       .  A
C2387      C2392   1.450       .  A
C2388      C2389   1.401       .  A
C2388      C2393   1.447       .  S
C2389      C2390   1.404       .  A
C2389      C2396   1.447       .  S
C2390      C2391   1.414       .  A
C2391      C2392   1.426       .  A
C2391      C2394   1.450       .  S
C2392      C2395   1.450       .  S
C2393      N2400   1.158       .  T
C2394      N2399   1.157       .  T
C2395      N2397   1.158       .  T
C2396      N2398   1.156       .  T
C2401      C2402   1.446       .  A
C2401      C2406   1.435       .  A
C2402      C2403   1.418       .  A
C2402      C2407   1.452       .  S
C2403      C2404   1.410       .  A
C2403      C2410   1.453       .  S
C2404      C2405   1.409       .  A
C2405      C2406   1.412       .  A
C2405      C2408   1.452       .  S
C2406      C2409   1.450       .  S
C2407      N2414   1.157       .  T
C2408      N2413   1.157       .  T
C2409      N2411   1.158       .  T
C2410      N2412   1.157       .  T
C2415      C2416   1.454       .  A
C2415      C2420   1.453       .  A
C2416      C2417   1.422       .  A
C2416      C2421   1.445       .  S
C2417      C2418   1.399       .  A
C2417      C2424   1.458       .  S
C2418      C2419   1.400       .  A
C2419      C2420   1.423       .  A
C2419      C2422   1.453       .  S
C2420      C2423   1.452       .  S
C2421      N2428   1.158       .  T
C2422      N2427   1.157       .  T
C2423      N2425   1.158       .  T
C2424      N2426   1.157       .  T
C2429      C2430   1.449       .  A
C2429      C2434   1.425       .  A
C2430      C2431   1.412       .  A
C2430      C2435   1.455       .  S
C2431      C2432   1.406       .  A
C2431      C2438   1.455       .  S
C2432      C2433   1.415       .  A
C2433      C2434   1.419       .  A
C2433      C2436   1.451       .  S
C2434      C2437   1.449       .  S
C2435      N2442   1.158       .  T
C2436      N2441   1.157       .  T
C2437      N2439   1.157       .  T
C2438      N2440   1.157       .  T
C2443      C2444   1.434       .  A
C2443      C2448   1.444       .  A
C2444      C2445   1.424       .  A
C2444      C2449   1.445       .  S
C2445      C2446   1.408       .  A
C2445      C2452   1.450       .  S
C2446      C2447   1.406       .  A
C2447      C2448   1.419       .  A
C2447      C2450   1.454       .  S
C2448      C2451   1.446       .  S
C2449      N2456   1.156       .  T
C2450      N2455   1.157       .  T
C2451      N2453   1.158       .  T
C2452      N2454   1.157       .  T
C2457      C2458   1.443       .  A
C2457      C2462   1.445       .  A
C2458      C2459   1.415       .  A
C2458      C2463   1.449       .  S
C2459      C2460   1.402       .  A
C2459      C2466   1.454       .  S
C2460      C2461   1.399       .  A
C2461      C2462   1.412       .  A
C2461      C2464   1.455       .  S
C2462      C2465   1.450       .  S
C2463      N2470   1.158       .  T
C2464      N2469   1.157       .  T
C2465      N2467   1.157       .  T
C2466      N2468   1.157       .  T
C2471      C2472   1.443       .  A
C2471      C2476   1.441       .  A
C2472      C2473   1.431       .  A
C2472      C2477   1.440       .  S
C2473      C2474   1.421       .  A
C2473      C2480   1.452       .  S
C2474      C2475   1.403       .  A
C2475      C2476   1.395       .  A
C2475      C2478   1.451       .  S
C2476      C2479   1.451       .  S
C2477      N2484   1.158       .  T
C2478      N2483   1.157       .  T
C2479      N2481   1.158       .  T
C2480      N2482   1.158       .  T
C2485      C2486   1.432       .  A
C2485      C2490   1.451       .  A
C2486      C2487   1.390       .  A
C2486      C2491   1.452       .  S
C2487      C2488   1.394       .  A
C2487      C2494   1.451       .  S
C2488      C2489   1.413       .  A
C2489      C2490   1.428       .  A
C2489      C2492   1.453       .  S
C2490      C2493   1.450       .  S
C2491      N2498   1.158       .  T
C2492      N2497   1.157       .  T
C2493      N2495   1.158       .  T
C2494      N2496   1.157       .  T
C2499      C2500   1.460       .  A
C2499      C2504   1.439       .  A
C2500      C2501   1.421       .  A
C2500      C2505   1.452       .  S
C2501      C2502   1.404       .  A
C2501      C2508   1.458       .  S
C2502      C2503   1.415       .  A
C2503      C2504   1.429       .  A
C2503      C2506   1.452       .  S
C2504      C2507   1.447       .  S
C2505      N2512   1.158       .  T
C2506      N2511   1.158       .  T
C2507      N2509   1.157       .  T
C2508      N2510   1.157       .  T
C2513      C2514   1.447       .  A
C2513      C2518   1.451       .  A
C2514      C2515   1.426       .  A
C2514      C2519   1.450       .  S
C2515      C2516   1.406       .  A
C2515      C2522   1.452       .  S
C2516      C2517   1.405       .  A
C2517      C2518   1.427       .  A
C2517      C2520   1.455       .  S
C2518      C2521   1.445       .  S
C2519      N2526   1.158       .  T
C2520      N2525   1.157       .  T
C2521      N2523   1.158       .  T
C2522      N2524   1.157       .  T
C2527      C2528   1.454       .  A
C2527      C2532   1.455       .  A
C2528      C2529   1.425       .  A
C2528      C2533   1.451       .  S
C2529      C2530   1.402       .  A
C2529      C2536   1.454       .  S
C2530      C2531   1.404       .  A
C2531      C2532   1.430       .  A
C2531      C2534   1.457       .  S
C2532      C2535   1.446       .  S
C2533      N2540   1.157       .  T
C2534      N2539   1.157       .  T
C2535      N2537   1.158       .  T
C2536      N2538   1.157       .  T
C2541      C2542   1.438       .  A
C2541      C2546   1.447       .  A
C2542      C2543   1.416       .  A
C2542      C2547   1.450       .  S
C2543      C2544   1.412       .  A
C2543      C2550   1.452       .  S
C2544      C2545   1.410       .  A
C2545      C2546   1.425       .  A
C2545      C2548   1.453       .  S
C2546      C2549   1.449       .  S
C2547      N2554   1.158       .  T
C2548      N2553   1.157       .  T
C2549      N2551   1.157       .  T
C2550      N2552   1.157       .  T
C2555      C2556   1.452       .  A
C2555      C2560   1.454       .  A
C2556      C2557   1.416       .  A
C2556      C2561   1.448       .  S
C2557      C2558   1.396       .  A
C2557      C2564   1.457       .  S
C2558      C2559   1.400       .  A
C2559      C2560   1.425       .  A
C2559      C2562   1.456       .  S
C2560      C2563   1.447       .  S
C2561      N2568   1.157       .  T
C2562      N2567   1.157       .  T
C2563      N2565   1.158       .  T
C2564      N2566   1.157       .  T
C2569      C2570   1.444       .  A
C2569      C2574   1.440       .  A
C2570      C2571   1.427       .  A
C2570      C2575   1.449       .  S
C2571      C2572   1.418       .  A
C2571      C2578   1.450       .  S
C2572      C2573   1.412       .  A
C2573      C2574   1.408       .  A
C2573      C2576   1.452       .  S
C2574      C2577   1.449       .  S
C2575      N2582   1.157       .  T
C2576      N2581   1.157       .  T
C2577      N2579   1.158       .  T
C2578      N2580   1.157       .  T
C2583      C2584   1.450       .  A
C2583      C2588   1.439       .  A
C2584      C2585   1.416       .  A
C2584      C2589   1.451       .  S
C2585      C2586   1.402       .  A
C2585      C2592   1.456       .  S
C2586      C2587   1.408       .  A
C2587      C2588   1.423       .  A
C2587      C2590   1.453       .  S
C2588      C2591   1.446       .  S
C2589      N2596   1.157       .  T
C2590      N2595   1.157       .  T
C2591      N2593   1.157       .  T
C2592      N2594   1.157       .  T
C2597      C2598   1.447       .  A
C2597      C2602   1.445       .  A
C2598      C2599   1.425       .  A
C2598      C2603   1.448       .  S
C2599      C2600   1.416       .  A
C2599      C2606   1.452       .  S
C2600      C2601   1.407       .  A
C2601      C2602   1.411       .  A
C2601      C2604   1.450       .  S
C2602      C2605   1.448       .  S
C2603      N2610   1.157       .  T
C2604      N2609   1.157       .  T
C2605      N2607   1.158       .  T
C2606      N2608   1.157       .  T
C2611      C2612   1.441       .  A
C2611      C2616   1.447       .  A
C2612      C2613   1.421       .  A
C2612      C2617   1.450       .  S
C2613      C2614   1.408       .  A
C2613      C2620   1.452       .  S
C2614      C2615   1.404       .  A
C2615      C2616   1.416       .  A
C2615      C2618   1.453       .  S
C2616      C2619   1.454       .  S
C2617      N2624   1.157       .  T
C2618      N2623   1.157       .  T
C2619      N2621   1.158       .  T
C2620      N2622   1.157       .  T
C2625      C2626   1.449       .  A
C2625      C2630   1.431       .  A
C2626      C2627   1.425       .  A
C2626      C2631   1.449       .  S
C2627      C2628   1.415       .  A
C2627      C2634   1.451       .  S
C2628      C2629   1.413       .  A
C2629      C2630   1.404       .  A
C2629      C2632   1.445       .  S
C2630      C2633   1.450       .  S
C2631      N2638   1.157       .  T
C2632      N2637   1.155       .  T
C2633      N2635   1.158       .  T
C2634      N2636   1.157       .  T
C2639      C2640   1.447       .  A
C2639      C2644   1.449       .  A
C2640      C2641   1.426       .  A
C2640      C2645   1.446       .  S
C2641      C2642   1.406       .  A
C2641      C2648   1.454       .  S
C2642      C2643   1.403       .  A
C2643      C2644   1.416       .  A
C2643      C2646   1.456       .  S
C2644      C2647   1.452       .  S
C2645      N2652   1.158       .  T
C2646      N2651   1.157       .  T
C2647      N2649   1.157       .  T
C2648      N2650   1.157       .  T
C2653      C2654   1.430       .  A
C2653      C2658   1.444       .  A
C2654      C2655   1.402       .  A
C2654      C2659   1.451       .  S
C2655      C2656   1.411       .  A
C2655      C2662   1.452       .  S
C2656      C2657   1.411       .  A
C2657      C2658   1.421       .  A
C2657      C2660   1.450       .  S
C2658      C2661   1.449       .  S
C2659      N2666   1.158       .  T
C2660      N2665   1.157       .  T
C2661      N2663   1.157       .  T
C2662      N2664   1.157       .  T
C2667      C2668   1.396       .  A
C2667      C2672   1.403       .  A
C2668      C2669   1.396       .  A
C2668      C2673   1.453       .  S
C2669      C2670   1.439       .  A
C2669      C2676   1.448       .  S
C2670      C2671   1.449       .  A
C2671      C2672   1.420       .  A
C2671      C2674   1.452       .  S
C2672      C2675   1.452       .  S
C2673      N2680   1.157       .  T
C2674      N2679   1.158       .  T
C2675      N2677   1.157       .  T
C2676      N2678   1.157       .  T
C2681      C2682   1.396       .  A
C2681      C2686   1.387       .  A
C2682      C2683   1.412       .  A
C2682      C2687   1.459       .  S
C2683      C2684   1.439       .  A
C2683      C2690   1.440       .  S
C2684      C2685   1.447       .  A
C2685      C2686   1.404       .  A
C2685      C2688   1.444       .  S
C2686      C2689   1.459       .  S
C2687      N2694   1.157       .  T
C2688      N2693   1.157       .  T
C2689      N2691   1.157       .  T
C2690      N2692   1.156       .  T
C2695      C2696   1.414       .  A
C2695      C2700   1.402       .  A
C2696      C2697   1.410       .  A
C2696      C2701   1.454       .  S
C2697      C2698   1.446       .  A
C2697      C2704   1.460       .  S
C2698      C2699   1.433       .  A
C2699      C2700   1.396       .  A
C2699      C2702   1.450       .  S
C2700      C2703   1.455       .  S
C2701      N2708   1.158       .  T
C2702      N2707   1.157       .  T
C2703      N2705   1.157       .  T
C2704      N2706   1.158       .  T
C2709      C2710   1.452       .  A
C2709      C2714   1.448       .  A
C2710      C2711   1.415       .  A
C2710      C2715   1.447       .  S
C2711      C2712   1.392       .  A
C2711      C2718   1.455       .  S
C2712      C2713   1.392       .  A
C2713      C2714   1.409       .  A
C2713      C2716   1.463       .  S
C2714      C2717   1.434       .  S
C2715      N2722   1.157       .  T
C2716      N2721   1.158       .  T
C2717      N2719   1.153       .  T
C2718      N2720   1.157       .  T
C2723      C2724   1.451       .  A
C2723      C2728   1.449       .  A
C2724      C2725   1.418       .  A
C2724      C2729   1.452       .  S
C2725      C2726   1.396       .  A
C2725      C2732   1.454       .  S
C2726      C2727   1.394       .  A
C2727      C2728   1.410       .  A
C2727      C2730   1.459       .  S
C2728      C2731   1.445       .  S
C2729      N2736   1.158       .  T
C2730      N2735   1.157       .  T
C2731      N2733   1.156       .  T
C2732      N2734   1.157       .  T
C2737      C2738   1.402       .  A
C2737      C2742   1.396       .  A
C2738      C2739   1.414       .  A
C2738      C2743   1.456       .  S
C2739      C2740   1.454       .  A
C2739      C2746   1.454       .  S
C2740      C2741   1.445       .  A
C2741      C2742   1.413       .  A
C2741      C2744   1.437       .  S
C2742      C2745   1.460       .  S
C2743      N2750   1.158       .  T
C2744      N2749   1.154       .  T
C2745      N2747   1.158       .  T
C2746      N2748   1.158       .  T
C2751      C2752   1.397       .  A
C2751      C2756   1.394       .  A
C2752      C2753   1.413       .  A
C2752      C2757   1.460       .  S
C2753      C2754   1.451       .  A
C2753      C2760   1.448       .  S
C2754      C2755   1.454       .  A
C2755      C2756   1.415       .  A
C2755      C2758   1.453       .  S
C2756      C2759   1.455       .  S
C2757      N2764   1.158       .  T
C2758      N2763   1.158       .  T
C2759      N2761   1.157       .  T
C2760      N2762   1.158       .  T
C2765      C2766   1.432       .  A
C2765      C2770   1.447       .  A
C2766      C2767   1.413       .  A
C2766      C2771   1.449       .  S
C2767      C2768   1.412       .  A
C2767      C2774   1.451       .  S
C2768      C2769   1.407       .  A
C2769      C2770   1.416       .  A
C2769      C2772   1.454       .  S
C2770      C2773   1.450       .  S
C2771      N2778   1.158       .  T
C2772      N2777   1.157       .  T
C2773      N2775   1.157       .  T
C2774      N2776   1.157       .  T
C2779      C2780   1.407       .  A
C2779      C2784   1.401       .  A
C2780      C2781   1.429       .  A
C2780      C2785   1.455       .  S
C2781      C2782   1.449       .  A
C2781      C2788   1.446       .  S
C2782      C2783   1.450       .  A
C2783      C2784   1.419       .  A
C2783      C2786   1.448       .  S
C2784      C2787   1.456       .  S
C2785      N2792   1.157       .  T
C2786      N2791   1.157       .  T
C2787      N2789   1.157       .  T
C2788      N2790   1.158       .  T
C2793      C2794   1.440       .  A
C2793      C2798   1.445       .  A
C2794      C2795   1.401       .  A
C2794      C2799   1.449       .  S
C2795      C2796   1.405       .  A
C2795      C2802   1.446       .  S
C2796      C2797   1.418       .  A
C2797      C2798   1.423       .  A
C2797      C2800   1.451       .  S
C2798      C2801   1.451       .  S
C2799      N2806   1.158       .  T
C2800      N2805   1.157       .  T
C2801      N2803   1.157       .  T
C2802      N2804   1.156       .  T
C2807      C2808   1.444       .  A
C2807      C2812   1.444       .  A
C2808      C2809   1.403       .  A
C2808      C2813   1.448       .  S
C2809      C2810   1.399       .  A
C2809      C2816   1.457       .  S
C2810      C2811   1.406       .  A
C2811      C2812   1.411       .  A
C2811      C2814   1.454       .  S
C2812      C2815   1.454       .  S
C2813      N2820   1.157       .  T
C2814      N2819   1.157       .  T
C2815      N2817   1.158       .  T
C2816      N2818   1.157       .  T
