geometry optimzed in LAMMPS
_audit_creation_date              2020-11-30 
_audit_creation_method            'lammps2cif' 
_symmetry_space_group_name_H-M    'P1' 
_symmetry_Int_Tables_number       1 
_symmetry_cell_setting            triclinic 
loop_ 
_symmetry_equiv_pos_as_xyz 
  x,y,z 
_cell_length_a                    53.213515007912314 
_cell_length_b                    53.18392053708769 
_cell_length_c                    32.34861423912195 
_cell_angle_alpha                 90.16759535351864 
_cell_angle_beta                  89.91251812978594 
_cell_angle_gamma                 119.95670702535044 
loop_ 
_atom_site_label 
_atom_site_type_symbol 
_atom_site_fract_x 
_atom_site_fract_y 
_atom_site_fract_z 
_atom_site_charge 
C1          C  0.25186234  0.37701419  0.17098654     0.03200
C2          C  0.24921813  0.35278715  0.14952421    -0.12950
C3          C  0.24692168  0.35124098  0.10631807     0.00700
C4          C  0.24632478  0.37364431  0.08446257    -0.11480
C5          C  0.25034524  0.39854915  0.10528389     0.03190
C6          C  0.25414954  0.40054880  0.14829958    -0.10900
H7          H  0.24818579  0.33473414  0.16645656     0.08780
H8          H  0.24382150  0.37218850  0.05114267     0.06310
H9          H  0.25772221  0.41999778  0.16427124     0.06160
C10         C  0.25265787  0.37579723  0.35049238     0.03200
C11         C  0.25379784  0.39921476  0.37250380    -0.12950
C12         C  0.24979207  0.39773188  0.41550446     0.00700
C13         C  0.24594995  0.37317744  0.43693825    -0.11480
C14         C  0.24639756  0.35042796  0.41566662     0.03190
C15         C  0.24868740  0.35135171  0.37248678    -0.10900
H16         H  0.25673578  0.41819369  0.35595474     0.08780
H17         H  0.24352771  0.37218352  0.47027086     0.06310
H18         H  0.24668442  0.33264999  0.35610109     0.06160
C19         C  0.10957247  0.37803405  0.35058755     0.03200
C20         C  0.13385558  0.39920406  0.37219828    -0.12950
C21         C  0.13595567  0.39731684  0.41519610     0.00700
C22         C  0.11394363  0.37359443  0.43655486    -0.11480
C23         C  0.08916871  0.35269053  0.41552433     0.03190
C24         C  0.08703769  0.35514228  0.37264726    -0.10900
H25         H  0.15151169  0.41677693  0.35544059     0.08780
H26         H  0.11557420  0.37200059  0.46973772     0.06310
H27         H  0.06819932  0.33873003  0.35618295     0.06160
C28         C  0.11072259  0.37715875  0.17137464     0.03200
C29         C  0.08752476  0.35514069  0.14901856    -0.12950
C30         C  0.08924914  0.35323421  0.10596016     0.00700
C31         C  0.11399496  0.37418764  0.08498588    -0.11480
C32         C  0.13630935  0.39757789  0.10661206     0.03190
C33         C  0.13460757  0.39890969  0.14982141    -0.10900
H34         H  0.06862747  0.33878615  0.16536762     0.08780
H35         H  0.11537212  0.37289680  0.05168120     0.06310
H36         H  0.15231069  0.41636996  0.16677169     0.06160
C37         C  0.10929157  0.23396719  0.17184464     0.03200
C38         C  0.08732089  0.23570282  0.15043446    -0.12950
C39         C  0.08919957  0.23983880  0.10742753     0.00700
C40         C  0.11311231  0.24197493  0.08594759    -0.11480
C41         C  0.13442100  0.23879894  0.10693102     0.03190
C42         C  0.13250900  0.23500763  0.14992240    -0.10900
H43         H  0.06929833  0.23477516  0.16742059     0.08780
H44         H  0.11453946  0.24494649  0.05271179     0.06310
H45         H  0.14939793  0.23349659  0.16650367     0.06160
C46         C  0.11002399  0.23537493  0.35008730     0.03200
C47         C  0.08784799  0.23642755  0.37202771    -0.12950
C48         C  0.08962854  0.23992814  0.41513877     0.00700
C49         C  0.11352269  0.24188656  0.43627511    -0.11480
C50         C  0.13493129  0.23909331  0.41479480     0.03190
C51         C  0.13314630  0.23593633  0.37163833    -0.10900
H52         H  0.06980942  0.23566040  0.35537458     0.08780
H53         H  0.11486450  0.24443442  0.46960358     0.06310
H54         H  0.15011687  0.23474944  0.35468698     0.06160
C55         C  0.37550207  0.11377617  0.35072797     0.03200
C56         C  0.39820458  0.13505411  0.37455830    -0.12950
C57         C  0.39398478  0.13888835  0.41637472     0.00700
C58         C  0.36804195  0.11894921  0.43579247    -0.11480
C59         C  0.34667729  0.09510671  0.41366933     0.03190
C60         C  0.35018086  0.09299640  0.37093702    -0.10900
H61         H  0.41858522  0.14994260  0.35983714     0.08780
H62         H  0.36514134  0.12117841  0.46851335     0.06310
H63         H  0.33284766  0.07565113  0.35334351     0.06160
C64         C  0.37460992  0.11351308  0.17113185     0.03200
C65         C  0.39652807  0.13666002  0.14861632    -0.12950
C66         C  0.39288072  0.14038476  0.10659920     0.00700
C67         C  0.36755292  0.11992721  0.08628529    -0.11480
C68         C  0.34626363  0.09564000  0.10761976     0.03190
C69         C  0.34950206  0.09299102  0.15021562    -0.10900
H70         H  0.41616927  0.15244194  0.16423372     0.08780
H71         H  0.36505908  0.12218264  0.05347851     0.06310
H72         H  0.33213755  0.07526782  0.16711009     0.06160
C73         C  0.37181483  0.25927392  0.17187351     0.03200
C74         C  0.39356971  0.25723864  0.15022064    -0.12950
C75         C  0.39131629  0.25244832  0.10735894     0.00700
C76         C  0.36679091  0.24927693  0.08635269    -0.11480
C77         C  0.34540417  0.25234187  0.10760747     0.03190
C78         C  0.34813816  0.25748092  0.15039468    -0.10900
H79         H  0.41192624  0.25876524  0.16694181     0.08780
H80         H  0.36495300  0.24564547  0.05322920     0.06310
H81         H  0.33135816  0.25906596  0.16726126     0.06160
C82         C  0.37120345  0.25876731  0.35003320     0.03200
C83         C  0.34801059  0.25756301  0.37216323    -0.12950
C84         C  0.34561967  0.25251498  0.41491326     0.00700
C85         C  0.36703978  0.24925598  0.43558045    -0.11480
C86         C  0.39129978  0.25213598  0.41400388     0.03190
C87         C  0.39315442  0.25674302  0.37111296    -0.10900
H88         H  0.33109585  0.25912198  0.35573497     0.08780
H89         H  0.36542834  0.24567530  0.46868708     0.06310
H90         H  0.41117451  0.25785042  0.35389610     0.06160
C91         C  0.22691595  0.11389618  0.34997042     0.03200
C92         C  0.22727034  0.13669518  0.37235280    -0.12950
C93         C  0.23264353  0.13941872  0.41498547     0.00700
C94         C  0.23642064  0.11837997  0.43564135    -0.11480
C95         C  0.23373735  0.09418104  0.41412478     0.03190
C96         C  0.22904403  0.09207539  0.37123134    -0.10900
H97         H  0.22469940  0.15309154  0.35616122     0.08780
H98         H  0.24021522  0.12020398  0.46871526     0.06310
H99         H  0.22820835  0.07408903  0.35419708     0.06160
C100        C  0.22517641  0.11321227  0.17124353     0.03200
C101        C  0.22814878  0.09183845  0.14990215    -0.12950
C102        C  0.23366800  0.09435199  0.10721175     0.00700
C103        C  0.23657374  0.11865196  0.08597644    -0.11480
C104        C  0.23262007  0.13961280  0.10677809     0.03190
C105        C  0.22681642  0.13669317  0.14930428    -0.10900
H106        H  0.22715742  0.07377458  0.16674415     0.08780
H107        H  0.24071861  0.12063601  0.05298708     0.06310
H108        H  0.22442884  0.15319567  0.16568924     0.06160
O109        O  0.26359610  0.31826136  0.09482077    -0.75230
O110        O  0.22622535  0.31453301  0.05558116    -0.54130
C111        C  0.24542474  0.32638035  0.08413462     0.78500
O112        O  0.31250191  0.26893511  0.42721498    -0.59830
O113        O  0.30930795  0.23182723  0.46645004    -0.52860
C114        C  0.32087195  0.25093052  0.43771352     0.70520
O115        O  0.26347493  0.31796459  0.42797548    -0.74390
O116        O  0.22602186  0.31434377  0.46705956    -0.54950
C117        C  0.24514577  0.32597933  0.43840131     0.76520
O118        O  0.31206477  0.26860672  0.09606454    -0.59530
O119        O  0.30902838  0.23168591  0.05617888    -0.52650
C120        C  0.32051106  0.25068151  0.08519506     0.73110
Zr121      Zr  0.27675708  0.28223142  0.07331357     2.54710
O122        O  0.32266948  0.32767489  0.07022848    -0.80090
O123        O  0.27675420  0.28219606  0.14862343    -0.93510
Zr124      Zr  0.27736065  0.28273605  0.45029915     2.64680
O125        O  0.32274883  0.32859011  0.45575197    -0.98470
O126        O  0.27921277  0.28462130  0.37510440    -0.80530
O127        O  0.26368808  0.29722545  0.01184536    -0.83890
O128        O  0.29177649  0.26915387  0.01175289    -2.18590
O129        O  0.21605812  0.17261895  0.09478508    -0.67280
O130        O  0.25338047  0.17601710  0.05564470    -0.51840
C131        C  0.23418151  0.16436976  0.08426102     0.71490
O132        O  0.16722171  0.22152192  0.42667068    -0.60180
O133        O  0.17094094  0.25884774  0.46630999    -0.52160
C134        C  0.15925365  0.23985006  0.43739698     0.73300
O135        O  0.21620878  0.17253597  0.42702058    -0.71580
O136        O  0.25344327  0.17595634  0.46623871    -0.50260
C137        C  0.23423799  0.16423203  0.43761065     0.74680
O138        O  0.16667264  0.22125481  0.09455504    -0.66910
O139        O  0.17057690  0.25877487  0.05557044    -0.54110
C140        C  0.15874824  0.23963173  0.08413590     0.73060
Zr141      Zr  0.20225000  0.20777345  0.07210635     2.77540
O142        O  0.15654519  0.16217665  0.06722774    -0.97660
O143        O  0.20090300  0.20669563  0.14731584    -0.78480
Zr144      Zr  0.20291696  0.20825086  0.44907617     2.70070
O145        O  0.15735930  0.16240324  0.45111130    -0.79730
O146        O  0.20372894  0.20945506  0.37381366    -0.98810
Zr147      Zr  0.21209556  0.27291125  0.01127986     2.21500
Zr148      Zr  0.26771180  0.21747651  0.01109193     2.11130
O149        O  0.21602640  0.19342047  0.01057681    -2.47500
O150        O  0.18773982  0.22129775  0.01061942    -0.79520
O151        O  0.25360789  0.23085971  0.07354455    -0.71710
O152        O  0.22611869  0.25949074  0.44880505    -2.32670
O153        O  0.22548996  0.25905456  0.07376152    -2.28880
O154        O  0.25428988  0.23135345  0.44866003    -0.73470
H155        H  0.31258128  0.27741625  0.01196067     0.78520
H156        H  0.21994426  0.26576514  0.42483298     0.79610
H157        H  0.20776732  0.17260392  0.01036548     0.81840
H158        H  0.21914779  0.26526160  0.09772336     0.79440
H159        H  0.25865314  0.27373336  0.36631803     0.42480
H160        H  0.22337575  0.21330133  0.36624973     0.41450
H161        H  0.14693128  0.16423336  0.47526932     0.41130
H162        H  0.16149519  0.14861190  0.05330552     0.39060
H163        H  0.22129258  0.21969916  0.15575051     0.42190
H164        H  0.25754071  0.27937921  0.15657684     0.36980
H165        H  0.32010566  0.33863310  0.04751637     0.43090
H166        H  0.33644278  0.32360552  0.46902271     0.39510
H167        H  0.15207197  0.15510275  0.09606700     0.44430
H168        H  0.29067208  0.30251414  0.15648543     0.43150
H169        H  0.32971833  0.33344700  0.42689343     0.43290
H170        H  0.19061108  0.18909205  0.36526323     0.43640
O171        O  0.03939295  0.31983567  0.42753284    -0.75230
O172        O  0.07324247  0.31628503  0.46654360    -0.54130
C173        C  0.06575502  0.32807350  0.43808809     0.78500
O174        O  0.44107466  0.26959487  0.09518063    -0.59830
O175        O  0.40748995  0.23229907  0.05560743    -0.52860
C176        C  0.41477262  0.25128658  0.08460716     0.70520
O177        O  0.03937217  0.32070130  0.09360684    -0.74390
O178        O  0.07323154  0.31671260  0.05504230    -0.54950
C179        C  0.06574697  0.32874280  0.08325976     0.76520
O180        O  0.44112174  0.26897663  0.42558721    -0.59530
O181        O  0.40755119  0.23189014  0.46526692    -0.52650
C182        C  0.41481222  0.25079617  0.43628941     0.73110
Zr183      Zr  0.49029570  0.28335181  0.44877315     2.54710
O184        O  0.48909779  0.32846590  0.45226705    -0.80090
O185        O  0.49039836  0.28319204  0.37347108    -0.93510
Zr186      Zr  0.49027996  0.28439353  0.07174716     2.64680
O187        O  0.48944329  0.32961478  0.06604791    -0.98470
O188        O  0.49080483  0.28663484  0.14693884    -0.80530
O189        O  0.01841443  0.29861201  0.01029157    -0.83890
O190        O  0.46217454  0.27014525  0.01021431    -2.18590
O191        O  0.44309907  0.17252833  0.42899188    -0.67280
O192        O  0.40869727  0.17608768  0.46667429    -0.51840
C193        C  0.41666470  0.16402925  0.43904140     0.71490
O194        O  0.03969646  0.22315731  0.09547269    -0.60180
O195        O  0.07337517  0.26056281  0.05634874    -0.52160
C196        C  0.06596747  0.24135430  0.08494812     0.73300
O197        O  0.44223922  0.17403187  0.09473007    -0.71580
O198        O  0.40813864  0.17696798  0.05559567    -0.50260
C199        C  0.41584899  0.16540492  0.08412049     0.74680
O200        O  0.04013342  0.22275119  0.42757997    -0.66910
O201        O  0.07369350  0.26047206  0.46652479    -0.54110
C202        C  0.06636581  0.24116451  0.43796683     0.73060
Zr203      Zr  0.49142118  0.20943719  0.45028933     2.77540
O204        O  0.49317172  0.16461455  0.45387565    -0.97660
O205        O  0.49080281  0.20912766  0.37503997    -0.78480
Zr206      Zr  0.49099618  0.21030501  0.07325698     2.70070
O207        O  0.49107668  0.16458799  0.07199962    -0.79730
O208        O  0.49138631  0.21240148  0.14848044    -0.98810
Zr209      Zr  0.04630356  0.27482265  0.01111597     2.21500
Zr210      Zr  0.43503858  0.21838413  0.01073490     2.11130
O211        O  0.46328220  0.19498853  0.01162785    -2.47500
O212        O  0.01930338  0.22325827  0.01191970    -0.79520
O213        O  0.46256315  0.23192213  0.44844367    -0.71710
O214        O  0.01877513  0.26158391  0.07346358    -2.32670
O215        O  0.01896036  0.26068859  0.44863217    -2.28880
O216        O  0.46233578  0.23296757  0.07327215    -0.73470
H217        H  0.44941338  0.27817250  0.00992701     0.78520
H218        H  0.03123491  0.26805169  0.09746013     0.79610
H219        H  0.45104997  0.17413652  0.01191191     0.81840
H220        H  0.03147285  0.26688135  0.42468821     0.79440
H221        H  0.99995314  0.27522262  0.15559640     0.42480
H222        H  0.47497119  0.21537869  0.15574292     0.41450
H223        H  0.00315935  0.16618016  0.04775110     0.41130
H224        H  0.47586533  0.15118335  0.47017658     0.39060
H225        H  0.47952492  0.21866722  0.36761065     0.42190
H226        H  0.00664254  0.28008209  0.36565096     0.36980
H227        H  0.00277658  0.33965285  0.47477096     0.43090
H228        H  0.47047337  0.32407535  0.05327181     0.39510
H229        H  0.48874425  0.15672520  0.42538846     0.44430
H230        H  0.49704098  0.30355303  0.36565666     0.43150
H231        H  0.48761135  0.33471525  0.09492663     0.43290
H232        H  0.48507829  0.19231494  0.15739719     0.43640
O233        O  0.26679614  0.44762914  0.42712294    -0.75230
O234        O  0.22925729  0.41397114  0.46609524    -0.54190
C235        C  0.24865194  0.42132702  0.43778725     0.78500
O236        O  0.31339398  0.04605058  0.09561992    -0.59830
O237        O  0.31015594  0.07966694  0.05573014    -0.52860
C238        C  0.32150724  0.07234733  0.08503919     0.70520
O239        O  0.26751984  0.44826209  0.09291918    -0.74390
O240        O  0.22971949  0.41431215  0.05447902    -0.54950
C241        C  0.24928306  0.42189990  0.08255294     0.76520
O242        O  0.31326225  0.04556840  0.42470195    -0.59530
O243        O  0.31010928  0.07928523  0.46485957    -0.52650
C244        C  0.32151826  0.07188262  0.43558055     0.73110
Zr245      Zr  0.27893920  0.49662078  0.44837670     2.54710
O246        O  0.32542338  0.49827544  0.45221446    -0.80090
O247        O  0.27899636  0.99625198  0.37306705    -0.93510
Zr248      Zr  0.27968136  0.49700738  0.07130381     2.64680
O249        O  0.32611849  0.49863710  0.06569785    -0.98470
O250        O  0.28109592  0.99615901  0.14648624    -0.80530
O251        O  0.26598923  0.46867954  0.00990679    -0.83890
O252        O  0.29380654  0.02496330  0.00978892    -2.18590
O253        O  0.21774341  0.04465141  0.42577009    -0.67280
O254        O  0.25444192  0.07872871  0.46556406    -0.51840
C255        C  0.23553488  0.07105600  0.43650369     0.71490
O256        O  0.16904967  0.44718060  0.09464888    -0.60180
O257        O  0.17299979  0.41347535  0.05556182    -0.52160
C258        C  0.16108440  0.42086583  0.08414610     0.73300
O259        O  0.21801843  0.04493083  0.09556370    -0.71580
O260        O  0.25456482  0.07891323  0.05561578    -0.50260
C261        C  0.23568397  0.07129572  0.08475078     0.74680
O262        O  0.16864470  0.44686769  0.42738495    -0.66910
O263        O  0.17271609  0.41322416  0.46609301    -0.54110
C264        C  0.16073116  0.42057501  0.43771370     0.73060
Zr265      Zr  0.20410389  0.49591481  0.44951427     2.77540
O266        O  0.15832154  0.49564558  0.45478123    -0.97660
O267        O  0.20233512  0.49506537  0.37431701    -0.78480
Zr268      Zr  0.20479674  0.49612214  0.07262609     2.70070
O269        O  0.15924859  0.49645249  0.07044203    -0.79730
O270        O  0.20523133  0.49512156  0.14788505    -0.98810
Zr271      Zr  0.21438813  0.44084895  0.01050415     2.21500
Zr272      Zr  0.26912618  0.05203071  0.01042679     2.11130
O273        O  0.21749731  0.02403103  0.01106050    -2.47500
O274        O  0.18985632  0.46793594  0.01107265    -0.79520
O275        O  0.25537150  0.02446394  0.44808994    -0.71710
O276        O  0.22841251  0.46842477  0.07290763    -2.32670
O277        O  0.22767289  0.46813398  0.44800042    -2.28880
O278        O  0.25607479  0.02478928  0.07285112    -0.73470
H279        H  0.31457247  0.03774530  0.00955041     0.78520
H280        H  0.22240180  0.45596778  0.09687131     0.79610
H281        H  0.20905014  0.03643097  0.01128083     0.81840
H282        H  0.22143206  0.45556761  0.42406147     0.79440
H283        H  0.26053228  0.48709994  0.15508459     0.42480
H284        H  0.22477657  0.01095976  0.15574956     0.41450
H285        H  0.14867606  0.48386328  0.04662933     0.41130
H286        H  0.16345998  0.01474038  0.46688598     0.39060
H287        H  0.22246729  0.00130352  0.36569121     0.42190
H288        H  0.25999948  0.47950856  0.36518237     0.36980
H289        H  0.32302476  0.48481723  0.47493314     0.43090
H290        H  0.33953064  0.01793550  0.05382216     0.39510
H291        H  0.15302265  0.49678197  0.42579768     0.44430
H292        H  0.29332041  0.49032254  0.36542721     0.43150
H293        H  0.33267581  0.49994536  0.09465690     0.43290
H294        H  0.19192826  0.50213346  0.15651580     0.43640
C295        C  0.22366462  0.11296283  0.21695959    -0.06060
C296        C  0.24513362  0.13727403  0.23806904    -0.17190
C297        C  0.24676393  0.13794334  0.28108627     0.11140
C298        C  0.22616064  0.11390042  0.30420069    -0.05980
C299        C  0.20448718  0.08956755  0.28319194    -0.17220
C300        C  0.20280039  0.08896622  0.23991054     0.11170
S301        S  0.27648370  0.16972273  0.30428569    -0.32180
S302        S  0.17303853  0.05749977  0.21607344    -0.32190
H303        H  0.17073892  0.07221570  0.18152657     0.29180
H304        H  0.28166866  0.15458726  0.33562950     0.29170
H305        H  0.26148123  0.15560968  0.22075893     0.19770
H306        H  0.18842341  0.07116593  0.30067344     0.19770
C307        C  0.37080097  0.25890771  0.30445218    -0.06060
C308        C  0.37749479  0.28453413  0.28339500    -0.17190
C309        C  0.37826787  0.28552723  0.24005114     0.11140
C310        C  0.37242882  0.26040840  0.21742830    -0.05980
C311        C  0.36533299  0.23477136  0.23859606    -0.17220
C312        C  0.36376070  0.23358995  0.28166200     0.11170
S313        S  0.38675229  0.31929612  0.21559637    -0.32180
S314        S  0.35142522  0.19882375  0.30554894    -0.32190
H315        H  0.33899710  0.20355085  0.34091074     0.29180
H316        H  0.39886381  0.31513689  0.17939190     0.29170
H317        H  0.38239049  0.30388725  0.30082360     0.19770
H318        H  0.36005307  0.21524632  0.22130332     0.19770
C319        C  0.37744373  0.11424398  0.30473039    -0.06060
C320        C  0.36895281  0.08820029  0.28318441    -0.17190
C321        C  0.36923858  0.08733171  0.23982306     0.11140
C322        C  0.37698214  0.11287421  0.21697932    -0.05980
C323        C  0.38616057  0.13894066  0.23860494    -0.17220
C324        C  0.38680914  0.14005420  0.28165087     0.11170
S325        S  0.36084096  0.05332164  0.21596089    -0.32180
S326        S  0.39895804  0.17525496  0.30437539    -0.32190
H327        H  0.37763848  0.16496149  0.33546767     0.29180
H328        H  0.37903317  0.06582431  0.18152393     0.29170
H329        H  0.36258805  0.06842934  0.30030537     0.19770
H330        H  0.39201337  0.15872189  0.22180586     0.19770
C331        C  0.10922564  0.23324862  0.21742990    -0.06060
C332        C  0.12962387  0.25827710  0.23844019    -0.17190
C333        C  0.12993861  0.25969940  0.28158333     0.11140
C334        C  0.10980369  0.23529151  0.30447674    -0.05980
C335        C  0.08930370  0.21026021  0.28350863    -0.17220
C336        C  0.08893703  0.20889587  0.24023559     0.11170
S337        S  0.15606369  0.29350356  0.30544586    -0.32180
S338        S  0.06249662  0.17542824  0.21606310    -0.32190
H339        H  0.07894773  0.17809166  0.18060702     0.29180
H340        H  0.13880747  0.29146410  0.33963762     0.29170
H341        H  0.14499502  0.27712779  0.22099260     0.19770
H342        H  0.07383976  0.19150650  0.30101133     0.19770
C343        C  0.10876515  0.37827348  0.30470227    -0.06060
C344        C  0.10435837  0.35329416  0.28356193    -0.17190
C345        C  0.10548162  0.35252537  0.24044471     0.11140
C346        C  0.11035220  0.37709611  0.21726629    -0.05980
C347        C  0.11478378  0.40212104  0.23833857    -0.17220
C348        C  0.11384780  0.40294030  0.28159394     0.11170
S349        S  0.10216347  0.32005757  0.21732400    -0.32180
S350        S  0.11832621  0.43573882  0.30508684    -0.32190
H351        H  0.10012246  0.42197279  0.33908853     0.29180
H352        H  0.12200521  0.33443902  0.18514412     0.29170
H353        H  0.10110018  0.33449016  0.30092260     0.19770
H354        H  0.11839446  0.42100615  0.22088515     0.19770
C355        C  0.25215965  0.37743325  0.21698511    -0.06060
C356        C  0.26989015  0.36894519  0.23773915    -0.17190
C357        C  0.27056592  0.36803689  0.28101542     0.11140
C358        C  0.25328817  0.37619000  0.30447359    -0.05980
C359        C  0.23545254  0.38453778  0.28368498    -0.17220
C360        C  0.23450293  0.38511755  0.24044377     0.11170
S361        S  0.29476579  0.35785528  0.30529760    -0.32180
S362        S  0.20905750  0.39369775  0.21618233    -0.32190
H363        H  0.20081742  0.40274838  0.25209560     0.29180
H364        H  0.30048921  0.34620413  0.26977527     0.29170
H365        H  0.28364857  0.36339578  0.21983437     0.19770
H366        H  0.22151003  0.38984794  0.30156942     0.19770
C367        C  0.25186237  0.37701421  0.67098656     0.03200
C368        C  0.24921819  0.35278719  0.64952424    -0.12950
C369        C  0.24692172  0.35124100  0.60631810     0.00700
C370        C  0.24632478  0.37364431  0.58446260    -0.11480
C371        C  0.25034521  0.39854914  0.60528392     0.03190
C372        C  0.25414952  0.40054880  0.64829961    -0.10900
H373        H  0.24818590  0.33473420  0.66645660     0.08780
H374        H  0.24382149  0.37218850  0.55114270     0.06310
H375        H  0.25772214  0.41999776  0.66427127     0.06160
C376        C  0.25265793  0.37579728  0.85049238     0.03200
C377        C  0.25379786  0.39921478  0.87250381    -0.12950
C378        C  0.24979206  0.39773188  0.91550446     0.00700
C379        C  0.24594994  0.37317743  0.93693823    -0.11480
C380        C  0.24639759  0.35042797  0.91566659     0.03190
C381        C  0.24868749  0.35135176  0.87248676    -0.10900
H382        H  0.25673577  0.41819371  0.85595475     0.08780
H383        H  0.24352766  0.37218348  0.97027084     0.06310
H384        H  0.24668458  0.33265008  0.85610105     0.06160
C385        C  0.10957248  0.37803405  0.85058756     0.03200
C386        C  0.13385559  0.39920406  0.87219828    -0.12950
C387        C  0.13595568  0.39731684  0.91519610     0.00700
C388        C  0.11394363  0.37359443  0.93655486    -0.11480
C389        C  0.08916872  0.35269053  0.91552433     0.03190
C390        C  0.08703770  0.35514227  0.87264726    -0.10900
H391        H  0.15151170  0.41677693  0.85544059     0.08780
H392        H  0.11557421  0.37200059  0.96973772     0.06310
H393        H  0.06819932  0.33873003  0.85618295     0.06160
C394        C  0.11072258  0.37715875  0.67137464     0.03200
C395        C  0.08752476  0.35514069  0.64901856    -0.12950
C396        C  0.08924914  0.35323421  0.60596016     0.00700
C397        C  0.11399495  0.37418765  0.58498588    -0.11480
C398        C  0.13630935  0.39757789  0.60661206     0.03190
C399        C  0.13460756  0.39890970  0.64982141    -0.10900
H400        H  0.06862747  0.33878615  0.66536762     0.08780
H401        H  0.11537212  0.37289681  0.55168121     0.06310
H402        H  0.15231068  0.41636997  0.66677169     0.06160
C403        C  0.10929158  0.23396720  0.67184464     0.03200
C404        C  0.08732090  0.23570283  0.65043445    -0.12950
C405        C  0.08919958  0.23983881  0.60742753     0.00700
C406        C  0.11311232  0.24197494  0.58594759    -0.11480
C407        C  0.13442100  0.23879895  0.60693103     0.03190
C408        C  0.13250901  0.23500764  0.64992240    -0.10900
H409        H  0.06929833  0.23477517  0.66742058     0.08780
H410        H  0.11453947  0.24494650  0.55271180     0.06310
H411        H  0.14939793  0.23349660  0.66650367     0.06160
C412        C  0.11002398  0.23537491  0.85008730     0.03200
C413        C  0.08784797  0.23642754  0.87202771    -0.12950
C414        C  0.08962852  0.23992812  0.91513876     0.00700
C415        C  0.11352267  0.24188654  0.93627511    -0.11480
C416        C  0.13493127  0.23909328  0.91479479     0.03190
C417        C  0.13314628  0.23593631  0.87163832    -0.10900
H418        H  0.06980941  0.23566040  0.85537458     0.08780
H419        H  0.11486448  0.24443439  0.96960357     0.06310
H420        H  0.15011684  0.23474942  0.85468697     0.06160
C421        C  0.37550207  0.11377618  0.85072797     0.03200
C422        C  0.39820458  0.13505412  0.87455830    -0.12950
C423        C  0.39398477  0.13888835  0.91637472     0.00700
C424        C  0.36804194  0.11894921  0.93579246    -0.11480
C425        C  0.34667728  0.09510671  0.91366932     0.03190
C426        C  0.35018086  0.09299640  0.87093701    -0.10900
H427        H  0.41858521  0.14994261  0.85983714     0.08780
H428        H  0.36514133  0.12117841  0.96851335     0.06310
H429        H  0.33284766  0.07565113  0.85334351     0.06160
C430        C  0.37460992  0.11351308  0.67113184     0.03200
C431        C  0.39652808  0.13666001  0.64861631    -0.12950
C432        C  0.39288072  0.14038476  0.60659919     0.00700
C433        C  0.36755293  0.11992721  0.58628528    -0.11480
C434        C  0.34626363  0.09563999  0.60761976     0.03190
C435        C  0.34950206  0.09299102  0.65021561    -0.10900
H436        H  0.41616927  0.15244193  0.66423371     0.08780
H437        H  0.36505909  0.12218264  0.55347851     0.06310
H438        H  0.33213755  0.07526782  0.66711008     0.06160
C439        C  0.37181483  0.25927391  0.67187352     0.03200
C440        C  0.39356971  0.25723862  0.65022065    -0.12950
C441        C  0.39131628  0.25244831  0.60735895     0.00700
C442        C  0.36679090  0.24927691  0.58635270    -0.11480
C443        C  0.34540417  0.25234186  0.60760748     0.03190
C444        C  0.34813816  0.25748091  0.65039469    -0.10900
H445        H  0.41192624  0.25876523  0.66694182     0.08780
H446        H  0.36495300  0.24564546  0.55322921     0.06310
H447        H  0.33135816  0.25906596  0.66726127     0.06160
C448        C  0.37120346  0.25876733  0.85003320     0.03200
C449        C  0.34801060  0.25756302  0.87216323    -0.12950
C450        C  0.34561968  0.25251498  0.91491327     0.00700
C451        C  0.36703979  0.24925599  0.93558045    -0.11480
C452        C  0.39129979  0.25213600  0.91400389     0.03190
C453        C  0.39315443  0.25674304  0.87111297    -0.10900
H454        H  0.33109585  0.25912198  0.85573497     0.08780
H455        H  0.36542835  0.24567530  0.96868708     0.06310
H456        H  0.41117452  0.25785044  0.85389611     0.06160
C457        C  0.22691595  0.11389617  0.84997042     0.03200
C458        C  0.22727034  0.13669517  0.87235280    -0.12950
C459        C  0.23264353  0.13941871  0.91498546     0.00700
C460        C  0.23642064  0.11837996  0.93564134    -0.11480
C461        C  0.23373735  0.09418103  0.91412477     0.03190
C462        C  0.22904403  0.09207538  0.87123134    -0.10900
H463        H  0.22469940  0.15309153  0.85616122     0.08780
H464        H  0.24021522  0.12020397  0.96871526     0.06310
H465        H  0.22820835  0.07408902  0.85419708     0.06160
C466        C  0.22517640  0.11321227  0.67124353     0.03200
C467        C  0.22814878  0.09183845  0.64990215    -0.12950
C468        C  0.23366799  0.09435200  0.60721174     0.00700
C469        C  0.23657374  0.11865196  0.58597644    -0.11480
C470        C  0.23262007  0.13961280  0.60677809     0.03190
C471        C  0.22681642  0.13669317  0.64930428    -0.10900
H472        H  0.22715741  0.07377458  0.66674414     0.08780
H473        H  0.24071861  0.12063602  0.55298708     0.06310
H474        H  0.22442883  0.15319567  0.66568925     0.06160
O475        O  0.26359613  0.31826137  0.59482080    -0.75230
O476        O  0.22622538  0.31453302  0.55558119    -0.54130
C477        C  0.24542477  0.32638036  0.58413466     0.78500
O478        O  0.31250190  0.26893511  0.92721497    -0.59830
O479        O  0.30930795  0.23182723  0.96645003    -0.52860
C480        C  0.32087194  0.25093052  0.93771352     0.70520
O481        O  0.26347493  0.31796458  0.92797545    -0.74390
O482        O  0.22602187  0.31434376  0.96705952    -0.54950
C483        C  0.24514578  0.32597933  0.93840127     0.76520
O484        O  0.31206478  0.26860672  0.59606455    -0.59530
O485        O  0.30902838  0.23168590  0.55617889    -0.52650
C486        C  0.32051106  0.25068151  0.58519507     0.73110
Zr487      Zr  0.27675710  0.28223143  0.57331359     2.54710
O488        O  0.32266950  0.32767488  0.57022849    -0.80090
O489        O  0.27675421  0.28219606  0.64862345    -0.93510
Zr490      Zr  0.27736063  0.28273603  0.95029913     2.64680
O491        O  0.32274881  0.32859010  0.95575196    -0.98470
O492        O  0.27921275  0.28462127  0.87510438    -0.80530
O493        O  0.26368810  0.29722546  0.51184538    -0.83890
O494        O  0.29177650  0.26915388  0.51175291    -2.18590
O495        O  0.21605813  0.17261896  0.59478509    -0.67280
O496        O  0.25338047  0.17601710  0.55564470    -0.51840
C497        C  0.23418151  0.16436976  0.58426103     0.71490
O498        O  0.16722169  0.22152189  0.92667068    -0.60180
O499        O  0.17094092  0.25884772  0.96630997    -0.52160
C500        C  0.15925363  0.23985004  0.93739696     0.73300
O501        O  0.21620878  0.17253596  0.92702058    -0.71580
O502        O  0.25344327  0.17595633  0.96623870    -0.50260
C503        C  0.23423799  0.16423202  0.93761064     0.74680
O504        O  0.16667264  0.22125482  0.59455505    -0.66910
O505        O  0.17057692  0.25877488  0.55557046    -0.54110
C506        C  0.15874825  0.23963174  0.58413591     0.73060
Zr507      Zr  0.20225001  0.20777345  0.57210636     2.77540
O508        O  0.15654520  0.16217666  0.56722775    -0.97660
O509        O  0.20090300  0.20669563  0.64731585    -0.78480
Zr510      Zr  0.20291694  0.20825084  0.94907616     2.70070
O511        O  0.15735929  0.16240322  0.95111131    -0.79730
O512        O  0.20372892  0.20945503  0.87381364    -0.98810
Zr513      Zr  0.21209557  0.27291126  0.51127989     2.21500
Zr514      Zr  0.26771181  0.21747651  0.51109193     2.11130
O515        O  0.21602640  0.19342048  0.51057681    -2.47500
O516        O  0.18773983  0.22129776  0.51061943    -0.79520
O517        O  0.25360790  0.23085972  0.57354457    -0.71710
O518        O  0.22611868  0.25949072  0.94880503    -2.32670
O519        O  0.22548997  0.25905457  0.57376154    -2.28880
O520        O  0.25428987  0.23135343  0.94866002    -0.73470
H521        H  0.31258129  0.27741625  0.51196068     0.78520
H522        H  0.21994424  0.26576512  0.92483296     0.79610
H523        H  0.20776733  0.17260393  0.51036549     0.81840
H524        H  0.21914781  0.26526160  0.59772339     0.79440
H525        H  0.25865312  0.27373331  0.86631801     0.42480
H526        H  0.22337573  0.21330130  0.86624972     0.41450
H527        H  0.14693127  0.16423334  0.97526932     0.41130
H528        H  0.16149519  0.14861191  0.55330553     0.39060
H529        H  0.22129259  0.21969917  0.65575052     0.42190
H530        H  0.25754073  0.27937922  0.65657687     0.36980
H531        H  0.32010569  0.33863310  0.54751639     0.43090
H532        H  0.33644276  0.32360551  0.96902268     0.39510
H533        H  0.15207197  0.15510276  0.59606700     0.44430
H534        H  0.29067211  0.30251414  0.65648545     0.43150
H535        H  0.32971831  0.33344699  0.92689341     0.43290
H536        H  0.19061105  0.18909202  0.86526322     0.43640
O537        O  0.03939296  0.31983567  0.92753284    -0.75230
O538        O  0.07324247  0.31628503  0.96654360    -0.54130
C539        C  0.06575503  0.32807350  0.93808810     0.78500
O540        O  0.44107466  0.26959486  0.59518063    -0.59830
O541        O  0.40748995  0.23229906  0.55560743    -0.52860
C542        C  0.41477262  0.25128656  0.58460717     0.70520
O543        O  0.03937217  0.32070130  0.59360684    -0.74390
O544        O  0.07323154  0.31671260  0.55504229    -0.54950
C545        C  0.06574697  0.32874280  0.58325976     0.76520
O546        O  0.44112175  0.26897664  0.92558722    -0.59530
O547        O  0.40755119  0.23189016  0.96526693    -0.52650
C548        C  0.41481223  0.25079618  0.93628942     0.73110
Zr549      Zr  0.49029571  0.28335182  0.94877316     2.54710
O550        O  0.48909780  0.32846591  0.95226706    -0.80090
O551        O  0.49039836  0.28319205  0.87347108    -0.93510
Zr552      Zr  0.49027995  0.28439353  0.57174715     2.64680
O553        O  0.48944327  0.32961478  0.56604789    -0.98470
O554        O  0.49080483  0.28663485  0.64693883    -0.80530
O555        O  0.01841443  0.29861200  0.51029156    -0.83890
O556        O  0.46217453  0.27014525  0.51021431    -2.18590
O557        O  0.44309906  0.17252834  0.92899188    -0.67280
O558        O  0.40869727  0.17608768  0.96667429    -0.51840
C559        C  0.41666469  0.16402926  0.93904140     0.71490
O560        O  0.03969647  0.22315731  0.59547269    -0.60180
O561        O  0.07337517  0.26056281  0.55634873    -0.52160
C562        C  0.06596747  0.24135430  0.58494812     0.73300
O563        O  0.44223923  0.17403187  0.59473006    -0.71580
O564        O  0.40813864  0.17696797  0.55559566    -0.50260
C565        C  0.41584899  0.16540491  0.58412049     0.74680
O566        O  0.04013341  0.22275119  0.92757997    -0.66910
O567        O  0.07369350  0.26047205  0.96652479    -0.54110
C568        C  0.06636580  0.24116450  0.93796682     0.73060
Zr569      Zr  0.49142117  0.20943719  0.95028933     2.77540
O570        O  0.49317170  0.16461454  0.95387565    -0.97660
O571        O  0.49080280  0.20912766  0.87503997    -0.78480
Zr572      Zr  0.49099619  0.21030502  0.57325698     2.70070
O573        O  0.49107670  0.16458800  0.57199963    -0.79730
O574        O  0.49138631  0.21240149  0.64848044    -0.98810
Zr575      Zr  0.04630356  0.27482265  0.51111597     2.21500
Zr576      Zr  0.43503858  0.21838412  0.51073490     2.11130
O577        O  0.46328221  0.19498853  0.51162784    -2.47500
O578        O  0.01930339  0.22325828  0.51191970    -0.79520
O579        O  0.46256315  0.23192214  0.94844367    -0.71710
O580        O  0.01877513  0.26158391  0.57346358    -2.32670
O581        O  0.01896035  0.26068859  0.94863217    -2.28880
O582        O  0.46233578  0.23296756  0.57327215    -0.73470
H583        H  0.44941337  0.27817249  0.50992701     0.78520
H584        H  0.03123491  0.26805169  0.59746013     0.79610
H585        H  0.45104998  0.17413652  0.51191191     0.81840
H586        H  0.03147285  0.26688135  0.92468822     0.79440
H587        H  0.99995313  0.27522262  0.65559640     0.42480
H588        H  0.47497120  0.21537869  0.65574292     0.41450
H589        H  0.00315936  0.16618016  0.54775110     0.41130
H590        H  0.47586531  0.15118335  0.97017657     0.39060
H591        H  0.47952491  0.21866723  0.86761066     0.42190
H592        H  0.00664254  0.28008209  0.86565097     0.36980
H593        H  0.00277659  0.33965285  0.97477098     0.43090
H594        H  0.47047334  0.32407533  0.55327181     0.39510
H595        H  0.48874423  0.15672519  0.92538846     0.44430
H596        H  0.49704099  0.30355303  0.86565667     0.43150
H597        H  0.48761135  0.33471526  0.59492661     0.43290
H598        H  0.48507830  0.19231495  0.65739719     0.43640
O599        O  0.26679613  0.44762913  0.92712295    -0.75230
O600        O  0.22925728  0.41397113  0.96609525    -0.54190
C601        C  0.24865193  0.42132701  0.93778726     0.78500
O602        O  0.31339398  0.04605057  0.59561992    -0.59830
O603        O  0.31015594  0.07966694  0.55573014    -0.52860
C604        C  0.32150724  0.07234733  0.58503919     0.70520
O605        O  0.26751982  0.44826208  0.59291920    -0.74390
O606        O  0.22971946  0.41431214  0.55447903    -0.54950
C607        C  0.24928303  0.42189989  0.58255296     0.76520
O608        O  0.31326224  0.04556839  0.92470194    -0.59530
O609        O  0.31010928  0.07928523  0.96485957    -0.52650
C610        C  0.32151826  0.07188262  0.93558055     0.73110
Zr611      Zr  0.27893921  0.49662078  0.94837669     2.54710
O612        O  0.32542338  0.49827544  0.95221446    -0.80090
O613        O  0.27899636  0.99625197  0.87306705    -0.93510
Zr614      Zr  0.27968135  0.49700738  0.57130381     2.64680
O615        O  0.32611848  0.49863708  0.56569785    -0.98470
O616        O  0.28109591  0.99615902  0.64648625    -0.80530
O617        O  0.26598923  0.46867954  0.50990679    -0.83890
O618        O  0.29380653  0.02496330  0.50978892    -2.18590
O619        O  0.21774341  0.04465140  0.92577009    -0.67280
O620        O  0.25444192  0.07872871  0.96556406    -0.51840
C621        C  0.23553488  0.07105599  0.93650369     0.71490
O622        O  0.16904966  0.44718061  0.59464888    -0.60180
O623        O  0.17299978  0.41347535  0.55556182    -0.52160
C624        C  0.16108439  0.42086584  0.58414610     0.73300
O625        O  0.21801842  0.04493084  0.59556369    -0.71580
O626        O  0.25456482  0.07891323  0.55561578    -0.50260
C627        C  0.23568397  0.07129572  0.58475077     0.74680
O628        O  0.16864470  0.44686768  0.92738495    -0.66910
O629        O  0.17271609  0.41322416  0.96609301    -0.54110
C630        C  0.16073116  0.42057500  0.93771370     0.73060
Zr631      Zr  0.20410389  0.49591481  0.94951427     2.77540
O632        O  0.15832154  0.49564557  0.95478122    -0.97660
O633        O  0.20233513  0.49506537  0.87431701    -0.78480
Zr634      Zr  0.20479673  0.49612214  0.57262609     2.70070
O635        O  0.15924858  0.49645249  0.57044202    -0.79730
O636        O  0.20523132  0.49512156  0.64788504    -0.98810
Zr637      Zr  0.21438812  0.44084895  0.51050414     2.21500
Zr638      Zr  0.26912618  0.05203071  0.51042679     2.11130
O639        O  0.21749731  0.02403103  0.51106050    -2.47500
O640        O  0.18985632  0.46793594  0.51107264    -0.79520
O641        O  0.25537150  0.02446394  0.94808994    -0.71710
O642        O  0.22841251  0.46842477  0.57290762    -2.32670
O643        O  0.22767289  0.46813397  0.94800042    -2.28880
O644        O  0.25607478  0.02478928  0.57285112    -0.73470
H645        H  0.31457247  0.03774529  0.50955041     0.78520
H646        H  0.22240179  0.45596778  0.59687131     0.79610
H647        H  0.20905014  0.03643097  0.51128083     0.81840
H648        H  0.22143207  0.45556761  0.92406148     0.79440
H649        H  0.26053228  0.48709996  0.65508460     0.42480
H650        H  0.22477656  0.01095976  0.65574956     0.41450
H651        H  0.14867605  0.48386328  0.54662933     0.41130
H652        H  0.16345998  0.01474038  0.96688599     0.39060
H653        H  0.22246729  0.00130351  0.86569121     0.42190
H654        H  0.25999949  0.47950855  0.86518237     0.36980
H655        H  0.32302477  0.48481724  0.97493315     0.43090
H656        H  0.33953063  0.01793548  0.55382216     0.39510
H657        H  0.15302266  0.49678197  0.92579766     0.44430
H658        H  0.29332041  0.49032252  0.86542721     0.43150
H659        H  0.33267579  0.49994534  0.59465690     0.43290
H660        H  0.19192825  0.50213346  0.65651580     0.43640
C661        C  0.22366461  0.11296283  0.71695959    -0.06060
C662        C  0.24513362  0.13727402  0.73806904    -0.17190
C663        C  0.24676393  0.13794333  0.78108627     0.11140
C664        C  0.22616064  0.11390042  0.80420068    -0.05980
C665        C  0.20448718  0.08956754  0.78319194    -0.17220
C666        C  0.20280038  0.08896622  0.73991054     0.11170
S667        S  0.27648370  0.16972272  0.80428569    -0.32180
S668        S  0.17303853  0.05749977  0.71607344    -0.32190
H669        H  0.17073892  0.07221570  0.68152657     0.29180
H670        H  0.28166866  0.15458725  0.83562950     0.29170
H671        H  0.26148123  0.15560968  0.72075893     0.19770
H672        H  0.18842341  0.07116592  0.80067343     0.19770
C673        C  0.37080098  0.25890773  0.80445218    -0.06060
C674        C  0.37749481  0.28453414  0.78339500    -0.17190
C675        C  0.37826788  0.28552724  0.74005114     0.11140
C676        C  0.37242883  0.26040839  0.71742831    -0.05980
C677        C  0.36533299  0.23477136  0.73859608    -0.17220
C678        C  0.36376071  0.23358996  0.78166202     0.11170
S679        S  0.38675229  0.31929612  0.71559635    -0.32180
S680        S  0.35142523  0.19882377  0.80554897    -0.32190
H681        H  0.33899709  0.20355087  0.84091076     0.29180
H682        H  0.39886382  0.31513688  0.67939189     0.29170
H683        H  0.38239050  0.30388726  0.80082359     0.19770
H684        H  0.36005307  0.21524632  0.72130335     0.19770
C685        C  0.37744373  0.11424398  0.80473039    -0.06060
C686        C  0.36895281  0.08820029  0.78318441    -0.17190
C687        C  0.36923858  0.08733171  0.73982306     0.11140
C688        C  0.37698214  0.11287421  0.71697931    -0.05980
C689        C  0.38616058  0.13894066  0.73860493    -0.17220
C690        C  0.38680914  0.14005420  0.78165086     0.11170
S691        S  0.36084096  0.05332164  0.71596089    -0.32180
S692        S  0.39895804  0.17525496  0.80437537    -0.32190
H693        H  0.37763847  0.16496149  0.83546765     0.29180
H694        H  0.37903317  0.06582430  0.68152393     0.29170
H695        H  0.36258805  0.06842934  0.80030537     0.19770
H696        H  0.39201337  0.15872189  0.72180585     0.19770
C697        C  0.10922563  0.23324862  0.71742990    -0.06060
C698        C  0.12962386  0.25827710  0.73844019    -0.17190
C699        C  0.12993860  0.25969940  0.78158334     0.11140
C700        C  0.10980367  0.23529150  0.80447673    -0.05980
C701        C  0.08930369  0.21026020  0.78350862    -0.17220
C702        C  0.08893703  0.20889587  0.74023558     0.11170
S703        S  0.15606367  0.29350356  0.80544588    -0.32180
S704        S  0.06249663  0.17542824  0.71606307    -0.32190
H705        H  0.07894774  0.17809167  0.68060700     0.29180
H706        H  0.13880745  0.29146408  0.83963764     0.29170
H707        H  0.14499502  0.27712780  0.72099262     0.19770
H708        H  0.07383975  0.19150649  0.80101131     0.19770
C709        C  0.10876515  0.37827348  0.80470227    -0.06060
C710        C  0.10435837  0.35329416  0.78356193    -0.17190
C711        C  0.10548162  0.35252538  0.74044471     0.11140
C712        C  0.11035220  0.37709612  0.71726630    -0.05980
C713        C  0.11478378  0.40212104  0.73833858    -0.17220
C714        C  0.11384780  0.40294030  0.78159395     0.11170
S715        S  0.10216347  0.32005757  0.71732400    -0.32180
S716        S  0.11832620  0.43573882  0.80508685    -0.32190
H717        H  0.10012245  0.42197278  0.83908854     0.29180
H718        H  0.12200521  0.33443903  0.68514412     0.29170
H719        H  0.10110019  0.33449016  0.80092259     0.19770
H720        H  0.11839446  0.42100615  0.72088516     0.19770
C721        C  0.25215970  0.37743329  0.71698513    -0.06060
C722        C  0.26989031  0.36894537  0.73773916    -0.17190
C723        C  0.27056610  0.36803709  0.78101543     0.11140
C724        C  0.25328824  0.37619006  0.80447359    -0.05980
C725        C  0.23545251  0.38453771  0.78368499    -0.17220
C726        C  0.23450288  0.38511745  0.74044378     0.11170
S727        S  0.29476610  0.35785568  0.80529765    -0.32180
S728        S  0.20905732  0.39369747  0.71618232    -0.32190
H729        H  0.20081708  0.40274793  0.75209560     0.29180
H730        H  0.30048974  0.34620472  0.76977529     0.29170
H731        H  0.28364880  0.36339604  0.71983438     0.19770
H732        H  0.22150993  0.38984777  0.80156944     0.19770
C733        C  0.25186155  0.87701370  0.17098569     0.03200
C734        C  0.24921610  0.85278612  0.14952328    -0.12950
C735        C  0.24692113  0.85124061  0.10631706     0.00700
C736        C  0.24632562  0.87364455  0.08446135    -0.11480
C737        C  0.25034679  0.89854964  0.10528266     0.03190
C738        C  0.25415113  0.90054922  0.14829836    -0.10900
H739        H  0.24818190  0.83473221  0.16645545     0.08780
H740        H  0.24382275  0.87218894  0.05114139     0.06310
H741        H  0.25772556  0.91999893  0.16426959     0.06160
C742        C  0.25265512  0.87579511  0.35049249     0.03200
C743        C  0.25379749  0.89921394  0.37250378    -0.12950
C744        C  0.24979258  0.89773195  0.41550465     0.00700
C745        C  0.24595043  0.87317772  0.43693905    -0.11480
C746        C  0.24639597  0.85042714  0.41566760     0.03190
C747        C  0.24868308  0.85134928  0.37248761    -0.10900
H748        H  0.25673646  0.91819320  0.35595459     0.08780
H749        H  0.24352947  0.87218463  0.47027184     0.06310
H750        H  0.24667699  0.83264605  0.35610269     0.06160
C751        C  0.10957239  0.87803435  0.35058777     0.03200
C752        C  0.13385556  0.89920431  0.37219848    -0.12950
C753        C  0.13595576  0.89731696  0.41519628     0.00700
C754        C  0.11394374  0.87359452  0.43655502    -0.11480
C755        C  0.08916875  0.85269070  0.41552452     0.03190
C756        C  0.08703764  0.85514256  0.37264749    -0.10900
H757        H  0.15151163  0.91677721  0.35544079     0.08780
H758        H  0.11557439  0.87200059  0.46973784     0.06310
H759        H  0.06819922  0.83873036  0.35618320     0.06160
C760        C  0.11072251  0.87715890  0.17137475     0.03200
C761        C  0.08752473  0.85514083  0.14901859    -0.12950
C762        C  0.08924926  0.85323421  0.10596023     0.00700
C763        C  0.11399522  0.87418755  0.08498605    -0.11480
C764        C  0.13630958  0.89757783  0.10661225     0.03190
C765        C  0.13460761  0.89890975  0.14982158    -0.10900
H766        H  0.06862736  0.83878636  0.16536760     0.08780
H767        H  0.11537250  0.87289663  0.05168140     0.06310
H768        H  0.15231069  0.91637004  0.16677190     0.06160
C769        C  0.10929188  0.73396737  0.17184449     0.03200
C770        C  0.08732122  0.73570306  0.15043432    -0.12950
C771        C  0.08919979  0.73983878  0.10742735     0.00700
C772        C  0.11311238  0.74197460  0.08594738    -0.11480
C773        C  0.13442101  0.73879855  0.10693085     0.03190
C774        C  0.13250915  0.73500750  0.14992224    -0.10900
H775        H  0.06929876  0.73477560  0.16742047     0.08780
H776        H  0.11453945  0.74494598  0.05271155     0.06310
H777        H  0.14939806  0.73349643  0.16650351     0.06160
C778        C  0.11002447  0.73537547  0.35008702     0.03200
C779        C  0.08784848  0.73642813  0.37202744    -0.12950
C780        C  0.08962892  0.73992846  0.41513852     0.00700
C781        C  0.11352296  0.74188662  0.43627487    -0.11480
C782        C  0.13493152  0.73909333  0.41479451     0.03190
C783        C  0.13314665  0.73593661  0.37163802    -0.10900
H784        H  0.06980999  0.73566112  0.35537431     0.08780
H785        H  0.11486469  0.74443429  0.46960336     0.06310
H786        H  0.15011718  0.73474967  0.35468666     0.06160
C787        C  0.37550218  0.61377596  0.35072779     0.03200
C788        C  0.39820474  0.63505389  0.37455808    -0.12950
C789        C  0.39398504  0.63888808  0.41637456     0.00700
C790        C  0.36804225  0.61894890  0.43579238    -0.11480
C791        C  0.34667752  0.59510642  0.41366928     0.03190
C792        C  0.35018102  0.59299615  0.37093692    -0.10900
H793        H  0.41858534  0.64994241  0.35983685     0.08780
H794        H  0.36514169  0.62117809  0.46851329     0.06310
H795        H  0.33284778  0.57565090  0.35334345     0.06160
C796        C  0.37461004  0.61351277  0.17113159     0.03200
C797        C  0.39652825  0.63665966  0.14861604    -0.12950
C798        C  0.39288094  0.64038436  0.10659888     0.00700
C799        C  0.36755314  0.61992680  0.08628497    -0.11480
C800        C  0.34626378  0.59563964  0.10761949     0.03190
C801        C  0.34950218  0.59299072  0.15021536    -0.10900
H802        H  0.41616943  0.65244158  0.16423345     0.08780
H803        H  0.36505931  0.62218221  0.05347818     0.06310
H804        H  0.33213763  0.57526758  0.16710986     0.06160
C805        C  0.37181480  0.75927346  0.17187332     0.03200
C806        C  0.39356968  0.75723818  0.15022043    -0.12950
C807        C  0.39131628  0.75244795  0.10735871     0.00700
C808        C  0.36679093  0.74927664  0.08635246    -0.11480
C809        C  0.34540419  0.75234160  0.10760726     0.03190
C810        C  0.34813817  0.75748056  0.15039450    -0.10900
H811        H  0.41192618  0.75876472  0.16694160     0.08780
H812        H  0.36495304  0.74564524  0.05322896     0.06310
H813        H  0.33135818  0.75906561  0.16726111     0.06160
C814        C  0.37120342  0.75876682  0.35003302     0.03200
C815        C  0.34801066  0.75756276  0.37216305    -0.12950
C816        C  0.34561979  0.75251492  0.41491313     0.00700
C817        C  0.36703987  0.74925585  0.43558035    -0.11480
C818        C  0.39129979  0.75213563  0.41400378     0.03190
C819        C  0.39315435  0.75674248  0.37111281    -0.10900
H820        H  0.33109595  0.75912177  0.35573475     0.08780
H821        H  0.36542847  0.74567529  0.46868701     0.06310
H822        H  0.41117438  0.75784973  0.35389596     0.06160
C823        C  0.22691603  0.61389604  0.34996999     0.03200
C824        C  0.22727048  0.63669506  0.37235237    -0.12950
C825        C  0.23264382  0.63941869  0.41498500     0.00700
C826        C  0.23642099  0.61837998  0.43564086    -0.11480
C827        C  0.23373763  0.59418100  0.41412432     0.03190
C828        C  0.22904418  0.59207528  0.37123091    -0.10900
H829        H  0.22469946  0.65309138  0.35616080     0.08780
H830        H  0.24021565  0.62020403  0.46871476     0.06310
H831        H  0.22820843  0.57408889  0.35419666     0.06160
C832        C  0.22517624  0.61321202  0.17124310     0.03200
C833        C  0.22814869  0.59183825  0.14990175    -0.12950
C834        C  0.23366805  0.59435188  0.10721139     0.00700
C835        C  0.23657387  0.61865186  0.08597608    -0.11480
C836        C  0.23262013  0.63961264  0.10677770     0.03190
C837        C  0.22681632  0.63669295  0.14930385    -0.10900
H838        H  0.22715727  0.57377435  0.16674374     0.08780
H839        H  0.24071883  0.62063595  0.05298674     0.06310
H840        H  0.22442867  0.65319542  0.16568878     0.06160
O841        O  0.26359572  0.81826109  0.09482012    -0.75230
O842        O  0.22622482  0.81453246  0.05558058    -0.54130
C843        C  0.24542426  0.82637995  0.08413389     0.78500
O844        O  0.31250198  0.76893511  0.42721483    -0.59830
O845        O  0.30930809  0.73182724  0.46644987    -0.52860
C846        C  0.32087206  0.75093053  0.43771337     0.70520
O847        O  0.26347419  0.81796448  0.42797651    -0.74390
O848        O  0.22602088  0.81434316  0.46706052    -0.54950
C849        C  0.24514474  0.82597889  0.43840237     0.76520
O850        O  0.31206468  0.76860640  0.09606451    -0.59530
O851        O  0.30902847  0.73168578  0.05617856    -0.52650
C852        C  0.32051107  0.75068128  0.08519487     0.73110
Zr853      Zr  0.27675696  0.78223114  0.07331361     2.54710
O854        O  0.32266944  0.82767454  0.07022913    -0.80090
O855        O  0.27675387  0.78219588  0.14862347    -0.93510
Zr856      Zr  0.27736071  0.78273615  0.45029909     2.64680
O857        O  0.32274901  0.82859014  0.45575144    -0.98470
O858        O  0.27921283  0.78462185  0.37510435    -0.80530
O859        O  0.26368796  0.79722521  0.01184545    -0.83890
O860        O  0.29177647  0.76915382  0.01175282    -2.18590
O861        O  0.21605808  0.67261862  0.09478461    -0.67280
O862        O  0.25338057  0.67601699  0.05564436    -0.51840
C863        C  0.23418156  0.66436956  0.08426062     0.71490
O864        O  0.16722192  0.72152184  0.42667009    -0.60180
O865        O  0.17094092  0.75884732  0.46630994    -0.52160
C866        C  0.15925377  0.73984987  0.43739666     0.73300
O867        O  0.21620903  0.67253591  0.42702007    -0.71580
O868        O  0.25344350  0.67595632  0.46623828    -0.50260
C869        C  0.23423825  0.66423200  0.43761017     0.74680
O870        O  0.16667255  0.72125429  0.09455490    -0.66910
O871        O  0.17057679  0.75877430  0.05557028    -0.54110
C872        C  0.15874816  0.73963120  0.08413574     0.73060
Zr873      Zr  0.20224991  0.70777300  0.07210590     2.77540
O874        O  0.15654513  0.66217622  0.06722684    -0.97660
O875        O  0.20090266  0.70669471  0.14731537    -0.78480
Zr876      Zr  0.20291717  0.70825077  0.44907558     2.70070
O877        O  0.15735950  0.66240313  0.45110943    -0.79730
O878        O  0.20372997  0.70945569  0.37381309    -0.98810
Zr879      Zr  0.21209541  0.77291066  0.01127987     2.21500
Zr880      Zr  0.26771190  0.71747643  0.01109162     2.11130
O881        O  0.21602650  0.69342029  0.01057626    -2.47500
O882        O  0.18773969  0.72129721  0.01061895    -0.79520
O883        O  0.25360782  0.73085942  0.07354430    -0.71710
O884        O  0.22611875  0.75949062  0.44880483    -2.32670
O885        O  0.22548981  0.75905409  0.07376156    -2.28880
O886        O  0.25429011  0.73135354  0.44865973    -0.73470
H887        H  0.31258126  0.77741622  0.01196065     0.78520
H888        H  0.21994428  0.76576506  0.42483285     0.79610
H889        H  0.20776747  0.67260374  0.01036484     0.81840
H890        H  0.21914758  0.76526107  0.09772339     0.79440
H891        H  0.25865313  0.77373550  0.36631798     0.42480
H892        H  0.22337692  0.71330218  0.36624954     0.41450
H893        H  0.14693148  0.66423278  0.47526782     0.41130
H894        H  0.16149517  0.64861154  0.05330452     0.39060
H895        H  0.22129204  0.71969907  0.15575022     0.42190
H896        H  0.25754042  0.77937919  0.15657674     0.36980
H897        H  0.32010623  0.83863236  0.04751588     0.43090
H898        H  0.33644268  0.82360568  0.46902344     0.39510
H899        H  0.15207181  0.65510220  0.09606602     0.44430
H900        H  0.29067185  0.80251394  0.15648544     0.43150
H901        H  0.32971894  0.83344638  0.42689298     0.43290
H902        H  0.19061232  0.68909274  0.36526221     0.43640
O903        O  0.03939301  0.81983571  0.42753299    -0.75230
O904        O  0.07324258  0.81628512  0.46654367    -0.54130
C905        C  0.06575509  0.82807360  0.43808824     0.78500
O906        O  0.44107468  0.76959455  0.09518045    -0.59830
O907        O  0.40749001  0.73229872  0.05560724    -0.52860
C908        C  0.41477265  0.75128623  0.08460696     0.70520
O909        O  0.03937227  0.82070117  0.09360686    -0.74390
O910        O  0.07323169  0.81671258  0.05504231    -0.54950
C911        C  0.06574710  0.82874275  0.08325979     0.76520
O912        O  0.44112176  0.76897635  0.42558715    -0.59530
O913        O  0.40755125  0.73188981  0.46526682    -0.52650
C914        C  0.41481225  0.75079585  0.43628933     0.73110
Zr915      Zr  0.49029577  0.78335168  0.44877314     2.54710
O916        O  0.48909761  0.82846563  0.45226725    -0.80090
O917        O  0.49039857  0.78319211  0.37347106    -0.93510
Zr918      Zr  0.49028004  0.78439329  0.07174716     2.64680
O919        O  0.48944331  0.82961452  0.06604809    -0.98470
O920        O  0.49080485  0.78663441  0.14693885    -0.80530
O921        O  0.01841450  0.79861187  0.01029157    -0.83890
O922        O  0.46217462  0.77014499  0.01021430    -2.18590
O923        O  0.44309936  0.67252819  0.42899161    -0.67280
O924        O  0.40869753  0.67608741  0.46667411    -0.51840
C925        C  0.41666497  0.66402902  0.43904119     0.71490
O926        O  0.03969670  0.72315722  0.09547247    -0.60180
O927        O  0.07337539  0.76056280  0.05634861    -0.52160
C928        C  0.06596770  0.74135426  0.08494794     0.73300
O929        O  0.44223946  0.67403153  0.09472977    -0.71580
O930        O  0.40813885  0.67696763  0.05559542    -0.50260
C931        C  0.41584922  0.66540454  0.08412019     0.74680
O932        O  0.04013378  0.72275138  0.42757974    -0.66910
O933        O  0.07369381  0.76047224  0.46652464    -0.54110
C934        C  0.06636617  0.74116473  0.43796662     0.73060
Zr935      Zr  0.49142147  0.70943716  0.45028910     2.77540
O936        O  0.49317221  0.66461462  0.45387536    -0.97660
O937        O  0.49080317  0.70912766  0.37503974    -0.78480
Zr938      Zr  0.49099641  0.71030484  0.07325676     2.70070
O939        O  0.49107711  0.66458791  0.07199937    -0.79730
O940        O  0.49138651  0.71240126  0.14848022    -0.98810
Zr941      Zr  0.04630375  0.77482264  0.01111590     2.21500
Zr942      Zr  0.43503874  0.71838386  0.01073475     2.11130
O943        O  0.46328247  0.69498837  0.01162760    -2.47500
O944        O  0.01930365  0.72325825  0.01191950    -0.79520
O945        O  0.46256333  0.73192199  0.44844352    -0.71710
O946        O  0.01877529  0.76158374  0.07346349    -2.32670
O947        O  0.01896054  0.76068857  0.44863208    -2.28880
O948        O  0.46233593  0.73296730  0.07327202    -0.73470
H949        H  0.44941343  0.77817220  0.00992702     0.78520
H950        H  0.03123506  0.76805152  0.09746005     0.79610
H951        H  0.45105028  0.67413635  0.01191162     0.81840
H952        H  0.03147305  0.76688140  0.42468814     0.79440
H953        H  0.99995331  0.77522233  0.15559634     0.42480
H954        H  0.47497133  0.71537836  0.15574271     0.41450
H955        H  0.00315967  0.66618007  0.04775071     0.41130
H956        H  0.47586579  0.65118334  0.47017616     0.39060
H957        H  0.47952553  0.71866749  0.36761040     0.42190
H958        H  0.00664283  0.78008227  0.36565095     0.36980
H959        H  0.00277649  0.83965264  0.47477104     0.43090
H960        H  0.47047345  0.82407510  0.05327182     0.39510
H961        H  0.48874487  0.65672533  0.42538813     0.44430
H962        H  0.49704112  0.80355310  0.36565675     0.43150
H963        H  0.48761123  0.83471487  0.09492681     0.43290
H964        H  0.48507857  0.69231472  0.15739694     0.43640
O965        O  0.26679672  0.94762947  0.42712252    -0.75230
O966        O  0.22925800  0.91397159  0.46609514    -0.54190
C967        C  0.24865263  0.92132737  0.43778710     0.78500
O968        O  0.31339388  0.54605023  0.09561980    -0.59830
O969        O  0.31015604  0.57966668  0.05572992    -0.52860
C970        C  0.32150729  0.57234701  0.08503898     0.70520
O971        O  0.26752128  0.94826261  0.09291815    -0.74390
O972        O  0.22972060  0.91431263  0.05447849    -0.54950
C973        C  0.24928452  0.92190043  0.08255192     0.76520
O974        O  0.31326237  0.54556810  0.42470200    -0.59530
O975        O  0.31010946  0.57928502  0.46485949    -0.52650
C976        C  0.32151845  0.57188236  0.43558054     0.73110
Zr977      Zr  0.27893926  0.99662102  0.44837651     2.54710
O978        O  0.32542358  0.99827599  0.45221414    -0.80090
O979        O  0.27899665  0.49625161  0.37306724    -0.93510
Zr980      Zr  0.27968173  0.99700773  0.07130370     2.64680
O981        O  0.32611934  0.99863839  0.06569842    -0.98470
O982        O  0.28109640  0.49615923  0.14648631    -0.80530
O983        O  0.26598953  0.96867990  0.00990667    -0.83890
O984        O  0.29380643  0.52496301  0.00978908    -2.18590
O985        O  0.21774358  0.54465137  0.42576966    -0.67280
O986        O  0.25444212  0.57872862  0.46556365    -0.51840
C987        C  0.23553511  0.57105594  0.43650326     0.71490
O988        O  0.16904993  0.94718056  0.09464911    -0.60180
O989        O  0.17300019  0.91347535  0.05556210    -0.52160
C990        C  0.16108471  0.92086579  0.08414634     0.73300
O991        O  0.21801831  0.54493076  0.09556321    -0.71580
O992        O  0.25456493  0.57891311  0.05561555    -0.50260
C993        C  0.23568399  0.57129562  0.08475042     0.74680
O994        O  0.16864471  0.94686777  0.42738534    -0.66910
O995        O  0.17271635  0.91322425  0.46609304    -0.54110
C996        C  0.16073129  0.92057509  0.43771391     0.73060
Zr997      Zr  0.20410383  0.99591488  0.44951474     2.77540
O998        O  0.15832146  0.99564554  0.45478266    -0.97660
O999        O  0.20233443  0.99506547  0.37431751    -0.78480
Zr1000     Zr  0.20479699  0.99612218  0.07262657     2.70070
O1001       O  0.15924879  0.99645244  0.07044305    -0.79730
O1002       O  0.20523189  0.99512149  0.14788551    -0.98810
Zr1003     Zr  0.21438846  0.94084908  0.01050419     2.21500
Zr1004     Zr  0.26912623  0.55203056  0.01042658     2.11130
O1005       O  0.21749733  0.52403100  0.01106001    -2.47500
O1006       O  0.18985655  0.96793598  0.01107310    -0.79520
O1007       O  0.25537158  0.52446380  0.44808975    -0.71710
O1008       O  0.22841290  0.96842489  0.07290771    -2.32670
O1009       O  0.22767295  0.96813413  0.44800050    -2.28880
O1010       O  0.25607456  0.52478908  0.07285090    -0.73470
H1011       H  0.31457238  0.53774494  0.00955065     0.78520
H1012       H  0.22240231  0.95596784  0.09687134     0.79610
H1013       H  0.20905022  0.53643099  0.01128023     0.81840
H1014       H  0.22143211  0.95556777  0.42406155     0.79440
H1015       H  0.26053159  0.98709824  0.15508402     0.42480
H1016       H  0.22477601  0.51095977  0.15574920     0.41450
H1017       H  0.14867624  0.98386336  0.04663027     0.41130
H1018       H  0.16345994  0.51474023  0.46688516     0.39060
H1019       H  0.22246821  0.50130406  0.36569108     0.42190
H1020       H  0.25999929  0.97950874  0.36518229     0.36980
H1021       H  0.32302524  0.98481820  0.47493331     0.43090
H1022       H  0.33953011  0.51793437  0.05382229     0.39510
H1023       H  0.15302207  0.99678139  0.42579918     0.44430
H1024       H  0.29332032  0.99032324  0.36542676     0.43150
H1025       H  0.33267681  0.99994733  0.09465751     0.43290
H1026       H  0.19192879  0.00213331  0.15651648     0.43640
C1027       C  0.22366444  0.61296259  0.21695916    -0.06060
C1028       C  0.24513343  0.63727382  0.23806856    -0.17190
C1029       C  0.24676382  0.63794315  0.28108576     0.11140
C1030       C  0.22616061  0.61390023  0.30420025    -0.05980
C1031       C  0.20448714  0.58956732  0.28319156    -0.17220
C1032       C  0.20280028  0.58896596  0.23991016     0.11170
S1033       S  0.27648361  0.66972259  0.30428507    -0.32180
S1034       S  0.17303844  0.55749946  0.21607313    -0.32190
H1035       H  0.17073880  0.57221531  0.18152620     0.29180
H1036       H  0.28166869  0.65458715  0.33562880     0.29170
H1037       H  0.26148100  0.65560947  0.22075841     0.19770
H1038       H  0.18842343  0.57116569  0.30067311     0.19770
C1039       C  0.37080095  0.75890720  0.30445200    -0.06060
C1040       C  0.37749494  0.78453367  0.28339483    -0.17190
C1041       C  0.37826803  0.78552678  0.24005097     0.11140
C1042       C  0.37242880  0.76040790  0.21742811    -0.05980
C1043       C  0.36533285  0.73477083  0.23859586    -0.17220
C1044       C  0.36376059  0.73358942  0.28166181     0.11170
S1045       S  0.38675271  0.81929576  0.21559623    -0.32180
S1046       S  0.35142501  0.69882320  0.30554872    -0.32190
H1047       H  0.33899700  0.70355037  0.34091059     0.29180
H1048       H  0.39886418  0.81513643  0.17939178     0.29170
H1049       H  0.38239075  0.80388682  0.30082344     0.19770
H1050       H  0.36005283  0.71524577  0.22130310     0.19770
C1051       C  0.37744378  0.61424375  0.30473019    -0.06060
C1052       C  0.36895281  0.58820003  0.28318423    -0.17190
C1053       C  0.36923860  0.58733144  0.23982288     0.11140
C1054       C  0.37698222  0.61287393  0.21697909    -0.05980
C1055       C  0.38616069  0.63894040  0.23860468    -0.17220
C1056       C  0.38680923  0.64005396  0.28165062     0.11170
S1057       S  0.36084092  0.55332133  0.21596076    -0.32180
S1058       S  0.39895818  0.67525475  0.30437509    -0.32190
H1059       H  0.37763869  0.66496132  0.33546748     0.29180
H1060       H  0.37903319  0.56582395  0.18152385     0.29170
H1061       H  0.36258802  0.56842909  0.30030520     0.19770
H1062       H  0.39201353  0.65872163  0.22180557     0.19770
C1063       C  0.10922602  0.73324894  0.21742972    -0.06060
C1064       C  0.12962451  0.75827735  0.23843987    -0.17190
C1065       C  0.12993931  0.75969975  0.28158301     0.11140
C1066       C  0.10980416  0.73529203  0.30447649    -0.05980
C1067       C  0.08930396  0.71026080  0.28350850    -0.17220
C1068       C  0.08893726  0.70889635  0.24023549     0.11170
S1069       S  0.15606477  0.79350380  0.30544541    -0.32180
S1070       S  0.06249663  0.67542877  0.21606314    -0.32190
H1071       H  0.07894774  0.67809187  0.18060720     0.29180
H1072       H  0.13880876  0.79146462  0.33963729     0.29170
H1073       H  0.14499581  0.77712792  0.22099220     0.19770
H1074       H  0.07383988  0.69150720  0.30101127     0.19770
C1075       C  0.10876500  0.87827376  0.30470246    -0.06060
C1076       C  0.10435815  0.85329441  0.28356215    -0.17190
C1077       C  0.10548137  0.85252557  0.24044493     0.11140
C1078       C  0.11035201  0.87709631  0.21726644    -0.05980
C1079       C  0.11478361  0.90212126  0.23833868    -0.17220
C1080       C  0.11384764  0.90294056  0.28159407     0.11170
S1081       S  0.10216312  0.82005769  0.21732432    -0.32180
S1082       S  0.11832604  0.93573909  0.30508693    -0.32190
H1083       H  0.10012240  0.92197309  0.33908873     0.29180
H1084       H  0.12200490  0.83443906  0.18514446     0.29170
H1085       H  0.10109994  0.83449041  0.30092284     0.19770
H1086       H  0.11839432  0.92100636  0.22088522     0.19770
C1087       C  0.25215821  0.87743237  0.21698452    -0.06060
C1088       C  0.26988365  0.86893798  0.23773878    -0.17190
C1089       C  0.27055838  0.86802837  0.28101494     0.11140
C1090       C  0.25328527  0.87618739  0.30447341    -0.05980
C1091       C  0.23545450  0.88454133  0.28368459    -0.17220
C1092       C  0.23450567  0.88512212  0.24044336     0.11170
S1093       S  0.29475172  0.85783757  0.30529569    -0.32180
S1094       S  0.20906593  0.89371059  0.21618264    -0.32190
H1095       H  0.20083300  0.90276871  0.25209538     0.29180
H1096       H  0.30046532  0.84617762  0.26977438     0.29170
H1097       H  0.28363930  0.86338471  0.21983433     0.19770
H1098       H  0.22151488  0.88985550  0.30156881     0.19770
C1099       C  0.25186157  0.87701372  0.67098571     0.03200
C1100       C  0.24921614  0.85278614  0.64952330    -0.12950
C1101       C  0.24692115  0.85124062  0.60631708     0.00700
C1102       C  0.24632561  0.87364456  0.58446137    -0.11480
C1103       C  0.25034677  0.89854964  0.60528268     0.03190
C1104       C  0.25415111  0.90054922  0.64829838    -0.10900
H1105       H  0.24818196  0.83473224  0.66645547     0.08780
H1106       H  0.24382274  0.87218894  0.55114141     0.06310
H1107       H  0.25772551  0.91999892  0.66426961     0.06160
C1108       C  0.25265515  0.87579514  0.85049249     0.03200
C1109       C  0.25379750  0.89921395  0.87250378    -0.12950
C1110       C  0.24979257  0.89773195  0.91550465     0.00700
C1111       C  0.24595042  0.87317771  0.93693904    -0.11480
C1112       C  0.24639599  0.85042715  0.91566759     0.03190
C1113       C  0.24868313  0.85134931  0.87248760    -0.10900
H1114       H  0.25673646  0.91819321  0.85595459     0.08780
H1115       H  0.24352944  0.87218461  0.97027183     0.06310
H1116       H  0.24667708  0.83264610  0.85610266     0.06160
C1117       C  0.10957239  0.87803435  0.85058777     0.03200
C1118       C  0.13385556  0.89920431  0.87219848    -0.12950
C1119       C  0.13595577  0.89731696  0.91519628     0.00700
C1120       C  0.11394374  0.87359451  0.93655502    -0.11480
C1121       C  0.08916875  0.85269070  0.91552452     0.03190
C1122       C  0.08703764  0.85514256  0.87264749    -0.10900
H1123       H  0.15151164  0.91677720  0.85544079     0.08780
H1124       H  0.11557439  0.87200059  0.96973784     0.06310
H1125       H  0.06819923  0.83873036  0.85618320     0.06160
C1126       C  0.11072251  0.87715891  0.67137475     0.03200
C1127       C  0.08752473  0.85514083  0.64901859    -0.12950
C1128       C  0.08924926  0.85323421  0.60596023     0.00700
C1129       C  0.11399521  0.87418755  0.58498605    -0.11480
C1130       C  0.13630958  0.89757783  0.60661224     0.03190
C1131       C  0.13460761  0.89890975  0.64982158    -0.10900
H1132       H  0.06862736  0.83878636  0.66536760     0.08780
H1133       H  0.11537250  0.87289663  0.55168140     0.06310
H1134       H  0.15231068  0.91637004  0.66677190     0.06160
C1135       C  0.10929188  0.73396738  0.67184449     0.03200
C1136       C  0.08732123  0.73570306  0.65043432    -0.12950
C1137       C  0.08919980  0.73983879  0.60742735     0.00700
C1138       C  0.11311238  0.74197460  0.58594738    -0.11480
C1139       C  0.13442101  0.73879855  0.60693085     0.03190
C1140       C  0.13250915  0.73500751  0.64992225    -0.10900
H1141       H  0.06929876  0.73477561  0.66742047     0.08780
H1142       H  0.11453946  0.74494599  0.55271155     0.06310
H1143       H  0.14939806  0.73349644  0.66650352     0.06160
C1144       C  0.11002446  0.73537546  0.85008702     0.03200
C1145       C  0.08784847  0.73642812  0.87202744    -0.12950
C1146       C  0.08962892  0.73992845  0.91513852     0.00700
C1147       C  0.11352295  0.74188661  0.93627487    -0.11480
C1148       C  0.13493151  0.73909331  0.91479451     0.03190
C1149       C  0.13314664  0.73593659  0.87163802    -0.10900
H1150       H  0.06980998  0.73566112  0.85537431     0.08780
H1151       H  0.11486468  0.74443427  0.96960336     0.06310
H1152       H  0.15011717  0.73474966  0.85468665     0.06160
C1153       C  0.37550218  0.61377596  0.85072779     0.03200
C1154       C  0.39820474  0.63505390  0.87455807    -0.12950
C1155       C  0.39398503  0.63888808  0.91637455     0.00700
C1156       C  0.36804224  0.61894890  0.93579238    -0.11480
C1157       C  0.34667752  0.59510642  0.91366927     0.03190
C1158       C  0.35018102  0.59299615  0.87093692    -0.10900
H1159       H  0.41858534  0.64994241  0.85983685     0.08780
H1160       H  0.36514169  0.62117809  0.96851329     0.06310
H1161       H  0.33284778  0.57565090  0.85334345     0.06160
C1162       C  0.37461005  0.61351277  0.67113159     0.03200
C1163       C  0.39652825  0.63665965  0.64861603    -0.12950
C1164       C  0.39288095  0.64038435  0.60659887     0.00700
C1165       C  0.36755314  0.61992680  0.58628496    -0.11480
C1166       C  0.34626378  0.59563964  0.60761948     0.03190
C1167       C  0.34950218  0.59299071  0.65021536    -0.10900
H1168       H  0.41616944  0.65244157  0.66423344     0.08780
H1169       H  0.36505932  0.62218220  0.55347818     0.06310
H1170       H  0.33213763  0.57526757  0.66710986     0.06160
C1171       C  0.37181480  0.75927346  0.67187332     0.03200
C1172       C  0.39356967  0.75723816  0.65022044    -0.12950
C1173       C  0.39131628  0.75244794  0.60735871     0.00700
C1174       C  0.36679093  0.74927663  0.58635246    -0.11480
C1175       C  0.34540419  0.75234159  0.60760727     0.03190
C1176       C  0.34813817  0.75748055  0.65039451    -0.10900
H1177       H  0.41192618  0.75876471  0.66694160     0.08780
H1178       H  0.36495304  0.74564523  0.55322897     0.06310
H1179       H  0.33135818  0.75906561  0.66726112     0.06160
C1180       C  0.37120342  0.75876683  0.85003303     0.03200
C1181       C  0.34801066  0.75756277  0.87216305    -0.12950
C1182       C  0.34561979  0.75251492  0.91491313     0.00700
C1183       C  0.36703987  0.74925586  0.93558035    -0.11480
C1184       C  0.39129979  0.75213564  0.91400378     0.03190
C1185       C  0.39315436  0.75674250  0.87111282    -0.10900
H1186       H  0.33109595  0.75912177  0.85573475     0.08780
H1187       H  0.36542847  0.74567529  0.96868701     0.06310
H1188       H  0.41117438  0.75784975  0.85389597     0.06160
C1189       C  0.22691603  0.61389603  0.84996999     0.03200
C1190       C  0.22727048  0.63669505  0.87235237    -0.12950
C1191       C  0.23264381  0.63941868  0.91498500     0.00700
C1192       C  0.23642099  0.61837997  0.93564086    -0.11480
C1193       C  0.23373763  0.59418100  0.91412431     0.03190
C1194       C  0.22904418  0.59207528  0.87123091    -0.10900
H1195       H  0.22469946  0.65309138  0.85616080     0.08780
H1196       H  0.24021565  0.62020402  0.96871476     0.06310
H1197       H  0.22820843  0.57408889  0.85419666     0.06160
C1198       C  0.22517623  0.61321202  0.67124310     0.03200
C1199       C  0.22814868  0.59183825  0.64990175    -0.12950
C1200       C  0.23366805  0.59435188  0.60721139     0.00700
C1201       C  0.23657387  0.61865186  0.58597608    -0.11480
C1202       C  0.23262014  0.63961265  0.60677770     0.03190
C1203       C  0.22681632  0.63669295  0.64930385    -0.10900
H1204       H  0.22715727  0.57377435  0.66674374     0.08780
H1205       H  0.24071884  0.62063595  0.55298674     0.06310
H1206       H  0.22442867  0.65319543  0.66568878     0.06160
O1207       O  0.26359574  0.81826111  0.59482013    -0.75230
O1208       O  0.22622484  0.81453247  0.55558060    -0.54130
C1209       C  0.24542428  0.82637996  0.58413391     0.78500
O1210       O  0.31250198  0.76893511  0.92721483    -0.59830
O1211       O  0.30930809  0.73182724  0.96644987    -0.52860
C1212       C  0.32087206  0.75093053  0.93771337     0.70520
O1213       O  0.26347419  0.81796447  0.92797649    -0.74390
O1214       O  0.22602088  0.81434316  0.96706049    -0.54950
C1215       C  0.24514475  0.82597889  0.93840235     0.76520
O1216       O  0.31206469  0.76860640  0.59606451    -0.59530
O1217       O  0.30902847  0.73168578  0.55617856    -0.52650
C1218       C  0.32051108  0.75068128  0.58519488     0.73110
Zr1219     Zr  0.27675697  0.78223115  0.57331362     2.54710
O1220       O  0.32266946  0.82767454  0.57022913    -0.80090
O1221       O  0.27675389  0.78219589  0.64862348    -0.93510
Zr1222     Zr  0.27736070  0.78273614  0.95029908     2.64680
O1223       O  0.32274900  0.82859013  0.95575144    -0.98470
O1224       O  0.27921282  0.78462184  0.87510434    -0.80530
O1225       O  0.26368797  0.79722522  0.51184546    -0.83890
O1226       O  0.29177647  0.76915382  0.51175283    -2.18590
O1227       O  0.21605808  0.67261863  0.59478461    -0.67280
O1228       O  0.25338057  0.67601699  0.55564437    -0.51840
C1229       C  0.23418156  0.66436957  0.58426062     0.71490
O1230       O  0.16722191  0.72152182  0.92667009    -0.60180
O1231       O  0.17094091  0.75884731  0.96630993    -0.52160
C1232       C  0.15925376  0.73984986  0.93739665     0.73300
O1233       O  0.21620903  0.67253590  0.92702006    -0.71580
O1234       O  0.25344349  0.67595631  0.96623827    -0.50260
C1235       C  0.23423825  0.66423199  0.93761017     0.74680
O1236       O  0.16667256  0.72125430  0.59455490    -0.66910
O1237       O  0.17057680  0.75877431  0.55557029    -0.54110
C1238       C  0.15874817  0.73963121  0.58413575     0.73060
Zr1239     Zr  0.20224992  0.70777301  0.57210591     2.77540
O1240       O  0.15654513  0.66217623  0.56722684    -0.97660
O1241       O  0.20090266  0.70669472  0.64731538    -0.78480
Zr1242     Zr  0.20291717  0.70825076  0.94907557     2.70070
O1243       O  0.15735950  0.66240312  0.95110943    -0.79730
O1244       O  0.20372996  0.70945567  0.87381308    -0.98810
Zr1245     Zr  0.21209541  0.77291067  0.51127988     2.21500
Zr1246     Zr  0.26771190  0.71747644  0.51109162     2.11130
O1247       O  0.21602650  0.69342029  0.51057627    -2.47500
O1248       O  0.18773970  0.72129722  0.51061896    -0.79520
O1249       O  0.25360783  0.73085943  0.57354430    -0.71710
O1250       O  0.22611874  0.75949061  0.94880482    -2.32670
O1251       O  0.22548982  0.75905410  0.57376157    -2.28880
O1252       O  0.25429011  0.73135353  0.94865973    -0.73470
H1253       H  0.31258127  0.77741623  0.51196065     0.78520
H1254       H  0.21994427  0.76576505  0.92483284     0.79610
H1255       H  0.20776748  0.67260375  0.51036484     0.81840
H1256       H  0.21914759  0.76526108  0.59772341     0.79440
H1257       H  0.25865312  0.77373546  0.86631797     0.42480
H1258       H  0.22337691  0.71330216  0.86624953     0.41450
H1259       H  0.14693148  0.66423276  0.97526782     0.41130
H1260       H  0.16149518  0.64861155  0.55330452     0.39060
H1261       H  0.22129204  0.71969908  0.65575023     0.42190
H1262       H  0.25754044  0.77937920  0.65657675     0.36980
H1263       H  0.32010625  0.83863236  0.54751588     0.43090
H1264       H  0.33644267  0.82360567  0.96902343     0.39510
H1265       H  0.15207182  0.65510220  0.59606603     0.44430
H1266       H  0.29067186  0.80251395  0.65648545     0.43150
H1267       H  0.32971892  0.83344638  0.92689298     0.43290
H1268       H  0.19061231  0.68909272  0.86526221     0.43640
O1269       O  0.03939301  0.81983571  0.92753299    -0.75230
O1270       O  0.07324258  0.81628512  0.96654367    -0.54130
C1271       C  0.06575510  0.82807360  0.93808824     0.78500
O1272       O  0.44107467  0.76959454  0.59518045    -0.59830
O1273       O  0.40749001  0.73229871  0.55560724    -0.52860
C1274       C  0.41477265  0.75128622  0.58460696     0.70520
O1275       O  0.03937227  0.82070116  0.59360686    -0.74390
O1276       O  0.07323169  0.81671258  0.55504231    -0.54950
C1277       C  0.06574710  0.82874275  0.58325979     0.76520
O1278       O  0.44112177  0.76897636  0.92558715    -0.59530
O1279       O  0.40755125  0.73188982  0.96526682    -0.52650
C1280       C  0.41481225  0.75079586  0.93628934     0.73110
Zr1281     Zr  0.49029578  0.78335168  0.94877314     2.54710
O1282       O  0.48909762  0.82846563  0.95226726    -0.80090
O1283       O  0.49039858  0.78319212  0.87347107    -0.93510
Zr1284     Zr  0.49028004  0.78439329  0.57174715     2.64680
O1285       O  0.48944330  0.82961451  0.56604807    -0.98470
O1286       O  0.49080484  0.78663442  0.64693884    -0.80530
O1287       O  0.01841450  0.79861187  0.51029156    -0.83890
O1288       O  0.46217462  0.77014499  0.51021429    -2.18590
O1289       O  0.44309936  0.67252819  0.92899161    -0.67280
O1290       O  0.40869752  0.67608741  0.96667411    -0.51840
C1291       C  0.41666497  0.66402903  0.93904119     0.71490
O1292       O  0.03969670  0.72315723  0.59547247    -0.60180
O1293       O  0.07337540  0.76056281  0.55634860    -0.52160
C1294       C  0.06596770  0.74135426  0.58494794     0.73300
O1295       O  0.44223947  0.67403153  0.59472976    -0.71580
O1296       O  0.40813885  0.67696762  0.55559541    -0.50260
C1297       C  0.41584922  0.66540454  0.58412019     0.74680
O1298       O  0.04013378  0.72275138  0.92757974    -0.66910
O1299       O  0.07369381  0.76047224  0.96652464    -0.54110
C1300       C  0.06636616  0.74116473  0.93796662     0.73060
Zr1301     Zr  0.49142146  0.70943716  0.95028910     2.77540
O1302       O  0.49317220  0.66461461  0.95387536    -0.97660
O1303       O  0.49080316  0.70912765  0.87503974    -0.78480
Zr1304     Zr  0.49099642  0.71030484  0.57325676     2.70070
O1305       O  0.49107712  0.66458792  0.57199938    -0.79730
O1306       O  0.49138651  0.71240126  0.64848022    -0.98810
Zr1307     Zr  0.04630375  0.77482264  0.51111590     2.21500
Zr1308     Zr  0.43503874  0.71838386  0.51073474     2.11130
O1309       O  0.46328247  0.69498837  0.51162759    -2.47500
O1310       O  0.01930366  0.72325825  0.51191950    -0.79520
O1311       O  0.46256333  0.73192199  0.94844352    -0.71710
O1312       O  0.01877529  0.76158374  0.57346349    -2.32670
O1313       O  0.01896054  0.76068857  0.94863209    -2.28880
O1314       O  0.46233593  0.73296730  0.57327201    -0.73470
H1315       H  0.44941342  0.77817220  0.50992702     0.78520
H1316       H  0.03123506  0.76805152  0.59746005     0.79610
H1317       H  0.45105029  0.67413635  0.51191162     0.81840
H1318       H  0.03147304  0.76688140  0.92468814     0.79440
H1319       H  0.99995331  0.77522233  0.65559634     0.42480
H1320       H  0.47497134  0.71537837  0.65574271     0.41450
H1321       H  0.00315967  0.66618007  0.54775071     0.41130
H1322       H  0.47586577  0.65118333  0.97017616     0.39060
H1323       H  0.47952553  0.71866750  0.86761041     0.42190
H1324       H  0.00664283  0.78008228  0.86565095     0.36980
H1325       H  0.00277650  0.83965265  0.97477104     0.43090
H1326       H  0.47047343  0.82407509  0.55327181     0.39510
H1327       H  0.48874486  0.65672533  0.92538814     0.44430
H1328       H  0.49704113  0.80355311  0.86565676     0.43150
H1329       H  0.48761122  0.83471487  0.59492680     0.43290
H1330       H  0.48507858  0.69231473  0.65739694     0.43640
O1331       O  0.26679671  0.94762947  0.92712253    -0.75230
O1332       O  0.22925799  0.91397159  0.96609514    -0.54190
C1333       C  0.24865263  0.92132736  0.93778711     0.78500
O1334       O  0.31339388  0.54605023  0.59561980    -0.59830
O1335       O  0.31015604  0.57966668  0.55572992    -0.52860
C1336       C  0.32150729  0.57234701  0.58503898     0.70520
O1337       O  0.26752126  0.94826261  0.59291816    -0.74390
O1338       O  0.22972058  0.91431263  0.55447850    -0.54950
C1339       C  0.24928450  0.92190042  0.58255193     0.76520
O1340       O  0.31326237  0.54556810  0.92470200    -0.59530
O1341       O  0.31010946  0.57928502  0.96485949    -0.52650
C1342       C  0.32151845  0.57188236  0.93558053     0.73110
Zr1343     Zr  0.27893926  0.99662102  0.94837651     2.54710
O1344       O  0.32542358  0.99827599  0.95221413    -0.80090
O1345       O  0.27899666  0.49625161  0.87306724    -0.93510
Zr1346     Zr  0.27968172  0.99700773  0.57130370     2.64680
O1347       O  0.32611933  0.99863837  0.56569843    -0.98470
O1348       O  0.28109640  0.49615923  0.64648631    -0.80530
O1349       O  0.26598952  0.96867990  0.50990667    -0.83890
O1350       O  0.29380643  0.52496301  0.50978908    -2.18590
O1351       O  0.21774358  0.54465136  0.92576965    -0.67280
O1352       O  0.25444212  0.57872861  0.96556365    -0.51840
C1353       C  0.23553511  0.57105594  0.93650326     0.71490
O1354       O  0.16904993  0.94718056  0.59464911    -0.60180
O1355       O  0.17300018  0.91347535  0.55556209    -0.52160
C1356       C  0.16108470  0.92086580  0.58414633     0.73300
O1357       O  0.21801831  0.54493077  0.59556321    -0.71580
O1358       O  0.25456493  0.57891311  0.55561555    -0.50260
C1359       C  0.23568399  0.57129563  0.58475042     0.74680
O1360       O  0.16864471  0.94686777  0.92738534    -0.66910
O1361       O  0.17271635  0.91322425  0.96609304    -0.54110
C1362       C  0.16073129  0.92057509  0.93771391     0.73060
Zr1363     Zr  0.20410383  0.99591487  0.94951474     2.77540
O1364       O  0.15832146  0.99564553  0.95478267    -0.97660
O1365       O  0.20233442  0.99506546  0.87431752    -0.78480
Zr1366     Zr  0.20479699  0.99612218  0.57262657     2.70070
O1367       O  0.15924879  0.99645244  0.57044304    -0.79730
O1368       O  0.20523187  0.99512150  0.64788550    -0.98810
Zr1369     Zr  0.21438845  0.94084908  0.51050419     2.21500
Zr1370     Zr  0.26912623  0.55203056  0.51042659     2.11130
O1371       O  0.21749733  0.52403100  0.51106001    -2.47500
O1372       O  0.18985655  0.96793598  0.51107309    -0.79520
O1373       O  0.25537159  0.52446380  0.94808975    -0.71710
O1374       O  0.22841289  0.96842489  0.57290771    -2.32670
O1375       O  0.22767295  0.96813412  0.94800050    -2.28880
O1376       O  0.25607455  0.52478908  0.57285090    -0.73470
H1377       H  0.31457238  0.53774493  0.50955065     0.78520
H1378       H  0.22240230  0.95596784  0.59687133     0.79610
H1379       H  0.20905022  0.53643099  0.51128023     0.81840
H1380       H  0.22143211  0.95556776  0.92406155     0.79440
H1381       H  0.26053158  0.98709826  0.65508403     0.42480
H1382       H  0.22477600  0.51095978  0.65574920     0.41450
H1383       H  0.14867624  0.98386336  0.54663025     0.41130
H1384       H  0.16345994  0.51474022  0.96688516     0.39060
H1385       H  0.22246822  0.50130406  0.86569109     0.42190
H1386       H  0.25999929  0.97950874  0.86518229     0.36980
H1387       H  0.32302525  0.98481821  0.97493331     0.43090
H1388       H  0.33953010  0.51793434  0.55382229     0.39510
H1389       H  0.15302207  0.99678137  0.92579919     0.44430
H1390       H  0.29332032  0.99032323  0.86542676     0.43150
H1391       H  0.33267680  0.99994733  0.59465752     0.43290
H1392       H  0.19192878  0.00213331  0.65651647     0.43640
C1393       C  0.22366444  0.61296259  0.71695916    -0.06060
C1394       C  0.24513343  0.63727382  0.73806856    -0.17190
C1395       C  0.24676382  0.63794315  0.78108577     0.11140
C1396       C  0.22616060  0.61390023  0.80420025    -0.05980
C1397       C  0.20448714  0.58956731  0.78319156    -0.17220
C1398       C  0.20280028  0.58896596  0.73991016     0.11170
S1399       S  0.27648361  0.66972258  0.80428507    -0.32180
S1400       S  0.17303844  0.55749946  0.71607313    -0.32190
H1401       H  0.17073880  0.57221532  0.68152620     0.29180
H1402       H  0.28166869  0.65458715  0.83562880     0.29170
H1403       H  0.26148100  0.65560948  0.72075841     0.19770
H1404       H  0.18842342  0.57116568  0.80067310     0.19770
C1405       C  0.37080096  0.75890721  0.80445200    -0.06060
C1406       C  0.37749495  0.78453368  0.78339482    -0.17190
C1407       C  0.37826804  0.78552678  0.74005097     0.11140
C1408       C  0.37242881  0.76040790  0.71742812    -0.05980
C1409       C  0.36533285  0.73477083  0.73859587    -0.17220
C1410       C  0.36376059  0.73358942  0.78166182     0.11170
S1411       S  0.38675272  0.81929575  0.71559622    -0.32180
S1412       S  0.35142501  0.69882320  0.80554874    -0.32190
H1413       H  0.33899700  0.70355038  0.84091060     0.29180
H1414       H  0.39886418  0.81513642  0.67939177     0.29170
H1415       H  0.38239076  0.80388682  0.80082343     0.19770
H1416       H  0.36005283  0.71524577  0.72130312     0.19770
C1417       C  0.37744378  0.61424375  0.80473019    -0.06060
C1418       C  0.36895282  0.58820004  0.78318422    -0.17190
C1419       C  0.36923860  0.58733143  0.73982288     0.11140
C1420       C  0.37698223  0.61287393  0.71697909    -0.05980
C1421       C  0.38616069  0.63894039  0.73860468    -0.17220
C1422       C  0.38680923  0.64005396  0.78165061     0.11170
S1423       S  0.36084092  0.55332133  0.71596077    -0.32180
S1424       S  0.39895817  0.67525475  0.80437507    -0.32190
H1425       H  0.37763869  0.66496133  0.83546746     0.29180
H1426       H  0.37903319  0.56582395  0.68152386     0.29170
H1427       H  0.36258802  0.56842909  0.80030520     0.19770
H1428       H  0.39201353  0.65872163  0.72180556     0.19770
C1429       C  0.10922602  0.73324894  0.71742972    -0.06060
C1430       C  0.12962450  0.75827735  0.73843988    -0.17190
C1431       C  0.12993931  0.75969975  0.78158301     0.11140
C1432       C  0.10980415  0.73529202  0.80447649    -0.05980
C1433       C  0.08930395  0.71026079  0.78350849    -0.17220
C1434       C  0.08893726  0.70889635  0.74023549     0.11170
S1435       S  0.15606476  0.79350380  0.80544542    -0.32180
S1436       S  0.06249663  0.67542877  0.71606312    -0.32190
H1437       H  0.07894775  0.67809187  0.68060719     0.29180
H1438       H  0.13880875  0.79146461  0.83963730     0.29170
H1439       H  0.14499581  0.77712792  0.72099221     0.19770
H1440       H  0.07383988  0.69150720  0.80101127     0.19770
C1441       C  0.10876500  0.87827376  0.80470246    -0.06060
C1442       C  0.10435815  0.85329441  0.78356215    -0.17190
C1443       C  0.10548137  0.85252557  0.74044493     0.11140
C1444       C  0.11035201  0.87709631  0.71726643    -0.05980
C1445       C  0.11478361  0.90212126  0.73833868    -0.17220
C1446       C  0.11384765  0.90294056  0.78159407     0.11170
S1447       S  0.10216312  0.82005769  0.71732432    -0.32180
S1448       S  0.11832605  0.93573909  0.80508693    -0.32190
H1449       H  0.10012241  0.92197309  0.83908874     0.29180
H1450       H  0.12200490  0.83443906  0.68514445     0.29170
H1451       H  0.10109994  0.83449041  0.80092284     0.19770
H1452       H  0.11839433  0.92100636  0.72088523     0.19770
C1453       C  0.25215823  0.87743239  0.71698453    -0.06060
C1454       C  0.26988374  0.86893809  0.73773879    -0.17190
C1455       C  0.27055848  0.86802849  0.78101494     0.11140
C1456       C  0.25328531  0.87618742  0.80447341    -0.05980
C1457       C  0.23545447  0.88454128  0.78368459    -0.17220
C1458       C  0.23450563  0.88512206  0.74044337     0.11170
S1459       S  0.29475190  0.85783780  0.80529571    -0.32180
S1460       S  0.20906582  0.89371042  0.71618264    -0.32190
H1461       H  0.20083278  0.90276843  0.75209538     0.29180
H1462       H  0.30046564  0.84617798  0.76977439     0.29170
H1463       H  0.28363943  0.86338487  0.71983433     0.19770
H1464       H  0.22151481  0.88985540  0.80156882     0.19770
C1465       C  0.75186233  0.37701418  0.17098653     0.03200
C1466       C  0.74921810  0.35278714  0.14952420    -0.12950
C1467       C  0.74692167  0.35124097  0.10631806     0.00700
C1468       C  0.74632479  0.37364431  0.08446256    -0.11480
C1469       C  0.75034526  0.39854915  0.10528388     0.03190
C1470       C  0.75414956  0.40054880  0.14829957    -0.10900
H1471       H  0.74818574  0.33473412  0.16645655     0.08780
H1472       H  0.74382151  0.37218851  0.05114265     0.06310
H1473       H  0.75772225  0.41999780  0.16427122     0.06160
C1474       C  0.75265784  0.37579721  0.35049239     0.03200
C1475       C  0.75379783  0.39921475  0.37250380    -0.12950
C1476       C  0.74979207  0.39773188  0.41550447     0.00700
C1477       C  0.74594995  0.37317745  0.43693826    -0.11480
C1478       C  0.74639754  0.35042795  0.41566663     0.03190
C1479       C  0.74868735  0.35135169  0.37248679    -0.10900
H1480       H  0.75673578  0.41819369  0.35595474     0.08780
H1481       H  0.74352772  0.37218353  0.47027088     0.06310
H1482       H  0.74668433  0.33264995  0.35610111     0.06160
C1483       C  0.60957247  0.37803405  0.35058755     0.03200
C1484       C  0.63385558  0.39920407  0.37219828    -0.12950
C1485       C  0.63595567  0.39731684  0.41519610     0.00700
C1486       C  0.61394362  0.37359443  0.43655486    -0.11480
C1487       C  0.58916871  0.35269054  0.41552433     0.03190
C1488       C  0.58703769  0.35514228  0.37264726    -0.10900
H1489       H  0.65151169  0.41677693  0.35544058     0.08780
H1490       H  0.61557420  0.37200060  0.46973772     0.06310
H1491       H  0.56819931  0.33873003  0.35618295     0.06160
C1492       C  0.61072259  0.37715875  0.17137464     0.03200
C1493       C  0.58752476  0.35514069  0.14901856    -0.12950
C1494       C  0.58924915  0.35323421  0.10596016     0.00700
C1495       C  0.61399496  0.37418764  0.08498588    -0.11480
C1496       C  0.63630936  0.39757789  0.10661206     0.03190
C1497       C  0.63460757  0.39890969  0.14982141    -0.10900
H1498       H  0.56862747  0.33878614  0.16536762     0.08780
H1499       H  0.61537213  0.37289680  0.05168120     0.06310
H1500       H  0.65231069  0.41636996  0.16677169     0.06160
C1501       C  0.60929157  0.23396718  0.17184464     0.03200
C1502       C  0.58732089  0.23570282  0.15043446    -0.12950
C1503       C  0.58919957  0.23983880  0.10742753     0.00700
C1504       C  0.61311231  0.24197492  0.08594759    -0.11480
C1505       C  0.63442099  0.23879893  0.10693102     0.03190
C1506       C  0.63250900  0.23500762  0.14992240    -0.10900
H1507       H  0.56929833  0.23477516  0.16742059     0.08780
H1508       H  0.61453946  0.24494648  0.05271179     0.06310
H1509       H  0.64939793  0.23349658  0.16650367     0.06160
C1510       C  0.61002400  0.23537493  0.35008730     0.03200
C1511       C  0.58784799  0.23642756  0.37202772    -0.12950
C1512       C  0.58962854  0.23992814  0.41513877     0.00700
C1513       C  0.61352269  0.24188657  0.43627511    -0.11480
C1514       C  0.63493129  0.23909332  0.41479480     0.03190
C1515       C  0.63314630  0.23593634  0.37163833    -0.10900
H1516       H  0.56980942  0.23566040  0.35537458     0.08780
H1517       H  0.61486450  0.24443442  0.46960358     0.06310
H1518       H  0.65011687  0.23474945  0.35468698     0.06160
C1519       C  0.87550207  0.11377618  0.35072797     0.03200
C1520       C  0.89820458  0.13505412  0.37455830    -0.12950
C1521       C  0.89398478  0.13888835  0.41637473     0.00700
C1522       C  0.86804195  0.11894921  0.43579247    -0.11480
C1523       C  0.84667729  0.09510672  0.41366933     0.03190
C1524       C  0.85018086  0.09299640  0.37093702    -0.10900
H1525       H  0.91858522  0.14994261  0.35983714     0.08780
H1526       H  0.86514133  0.12117841  0.46851335     0.06310
H1527       H  0.83284766  0.07565113  0.35334351     0.06160
C1528       C  0.87460992  0.11351309  0.17113185     0.03200
C1529       C  0.89652807  0.13666002  0.14861632    -0.12950
C1530       C  0.89288072  0.14038477  0.10659920     0.00700
C1531       C  0.86755293  0.11992721  0.08628529    -0.11480
C1532       C  0.84626363  0.09564000  0.10761976     0.03190
C1533       C  0.84950206  0.09299102  0.15021562    -0.10900
H1534       H  0.91616927  0.15244194  0.16423372     0.08780
H1535       H  0.86505908  0.12218264  0.05347851     0.06310
H1536       H  0.83213755  0.07526782  0.16711009     0.06160
C1537       C  0.87181483  0.25927392  0.17187351     0.03200
C1538       C  0.89356971  0.25723864  0.15022064    -0.12950
C1539       C  0.89131629  0.25244832  0.10735893     0.00700
C1540       C  0.86679090  0.24927693  0.08635269    -0.11480
C1541       C  0.84540417  0.25234187  0.10760747     0.03190
C1542       C  0.84813816  0.25748092  0.15039468    -0.10900
H1543       H  0.91192624  0.25876524  0.16694181     0.08780
H1544       H  0.86495300  0.24564547  0.05322920     0.06310
H1545       H  0.83135815  0.25906596  0.16726126     0.06160
C1546       C  0.87120345  0.25876732  0.35003320     0.03200
C1547       C  0.84801059  0.25756302  0.37216323    -0.12950
C1548       C  0.84561968  0.25251499  0.41491326     0.00700
C1549       C  0.86703978  0.24925599  0.43558045    -0.11480
C1550       C  0.89129979  0.25213598  0.41400388     0.03190
C1551       C  0.89315442  0.25674302  0.37111296    -0.10900
H1552       H  0.83109585  0.25912198  0.35573497     0.08780
H1553       H  0.86542835  0.24567531  0.46868708     0.06310
H1554       H  0.91117451  0.25785042  0.35389610     0.06160
C1555       C  0.72691596  0.11389619  0.34997042     0.03200
C1556       C  0.72727035  0.13669518  0.37235280    -0.12950
C1557       C  0.73264354  0.13941873  0.41498547     0.00700
C1558       C  0.73642064  0.11837998  0.43564135    -0.11480
C1559       C  0.73373735  0.09418104  0.41412478     0.03190
C1560       C  0.72904403  0.09207539  0.37123134    -0.10900
H1561       H  0.72469940  0.15309155  0.35616122     0.08780
H1562       H  0.74021523  0.12020398  0.46871526     0.06310
H1563       H  0.72820835  0.07408903  0.35419708     0.06160
C1564       C  0.72517641  0.11321227  0.17124353     0.03200
C1565       C  0.72814879  0.09183845  0.14990215    -0.12950
C1566       C  0.73366800  0.09435199  0.10721174     0.00700
C1567       C  0.73657374  0.11865196  0.08597644    -0.11480
C1568       C  0.73262007  0.13961280  0.10677809     0.03190
C1569       C  0.72681642  0.13669317  0.14930428    -0.10900
H1570       H  0.72715742  0.07377458  0.16674415     0.08780
H1571       H  0.74071862  0.12063601  0.05298708     0.06310
H1572       H  0.72442884  0.15319567  0.16568924     0.06160
O1573       O  0.76359609  0.31826135  0.09482076    -0.75230
O1574       O  0.72622534  0.31453300  0.05558115    -0.54130
C1575       C  0.74542473  0.32638034  0.08413462     0.78500
O1576       O  0.81250191  0.26893512  0.42721498    -0.59830
O1577       O  0.80930796  0.23182724  0.46645004    -0.52860
C1578       C  0.82087195  0.25093053  0.43771352     0.70520
O1579       O  0.76347492  0.31796459  0.42797550    -0.74390
O1580       O  0.72602185  0.31434377  0.46705958    -0.54950
C1581       C  0.74514576  0.32597933  0.43840132     0.76520
O1582       O  0.81206477  0.26860672  0.09606454    -0.59530
O1583       O  0.80902838  0.23168591  0.05617888    -0.52650
C1584       C  0.82051106  0.25068151  0.08519506     0.73110
Zr1585     Zr  0.77675708  0.28223142  0.07331357     2.54710
O1586       O  0.82266947  0.32767488  0.07022847    -0.80090
O1587       O  0.77675419  0.28219606  0.14862342    -0.93510
Zr1588     Zr  0.77736065  0.28273605  0.45029915     2.64680
O1589       O  0.82274883  0.32859012  0.45575197    -0.98470
O1590       O  0.77921277  0.28462131  0.37510441    -0.80530
O1591       O  0.76368807  0.29722544  0.01184535    -0.83890
O1592       O  0.79177648  0.26915387  0.01175289    -2.18590
O1593       O  0.71605812  0.17261895  0.09478508    -0.67280
O1594       O  0.75338047  0.17601709  0.05564470    -0.51840
C1595       C  0.73418151  0.16436976  0.08426102     0.71490
O1596       O  0.66722172  0.22152192  0.42667068    -0.60180
O1597       O  0.67094094  0.25884774  0.46630999    -0.52160
C1598       C  0.65925365  0.23985007  0.43739698     0.73300
O1599       O  0.71620879  0.17253598  0.42702058    -0.71580
O1600       O  0.75344327  0.17595634  0.46623871    -0.50260
C1601       C  0.73423800  0.16423204  0.43761064     0.74680
O1602       O  0.66667263  0.22125480  0.09455504    -0.66910
O1603       O  0.67057690  0.25877486  0.05557044    -0.54110
C1604       C  0.65874824  0.23963172  0.08413590     0.73060
Zr1605     Zr  0.70225000  0.20777344  0.07210634     2.77540
O1606       O  0.65654519  0.16217664  0.06722774    -0.97660
O1607       O  0.70090300  0.20669562  0.14731583    -0.78480
Zr1608     Zr  0.70291696  0.20825086  0.44907617     2.70070
O1609       O  0.65735930  0.16240324  0.45111129    -0.79730
O1610       O  0.70372896  0.20945508  0.37381365    -0.98810
Zr1611     Zr  0.71209555  0.27291124  0.01127985     2.21500
Zr1612     Zr  0.76771180  0.21747650  0.01109192     2.11130
O1613       O  0.71602640  0.19342047  0.01057680    -2.47500
O1614       O  0.68773982  0.22129774  0.01061941    -0.79520
O1615       O  0.75360788  0.23085971  0.07354455    -0.71710
O1616       O  0.72611870  0.25949074  0.44880505    -2.32670
O1617       O  0.72548995  0.25905456  0.07376151    -2.28880
O1618       O  0.75428989  0.23135346  0.44866003    -0.73470
H1619       H  0.81258128  0.27741625  0.01196067     0.78520
H1620       H  0.71994426  0.26576514  0.42483299     0.79610
H1621       H  0.70776732  0.17260392  0.01036548     0.81840
H1622       H  0.71914779  0.26526159  0.09772336     0.79440
H1623       H  0.75865314  0.27373340  0.36631803     0.42480
H1624       H  0.72337577  0.21330135  0.36624973     0.41450
H1625       H  0.64693128  0.16423336  0.47526931     0.41130
H1626       H  0.66149519  0.14861189  0.05330552     0.39060
H1627       H  0.72129258  0.21969915  0.15575050     0.42190
H1628       H  0.75754071  0.27937921  0.15657684     0.36980
H1629       H  0.82010566  0.33863310  0.04751637     0.43090
H1630       H  0.83644278  0.32360554  0.46902272     0.39510
H1631       H  0.65207197  0.15510274  0.09606700     0.44430
H1632       H  0.79067208  0.30251414  0.15648543     0.43150
H1633       H  0.82971834  0.33344699  0.42689343     0.43290
H1634       H  0.69061109  0.18909207  0.36526322     0.43640
O1635       O  0.53939295  0.31983567  0.42753284    -0.75230
O1636       O  0.57324246  0.31628503  0.46654360    -0.54130
C1637       C  0.56575502  0.32807350  0.43808809     0.78500
O1638       O  0.94107466  0.26959487  0.09518062    -0.59830
O1639       O  0.90748995  0.23229907  0.05560743    -0.52860
C1640       C  0.91477262  0.25128658  0.08460716     0.70520
O1641       O  0.53937217  0.32070129  0.09360684    -0.74390
O1642       O  0.57323154  0.31671260  0.05504229    -0.54950
C1643       C  0.56574698  0.32874280  0.08325976     0.76520
O1644       O  0.94112174  0.26897663  0.42558721    -0.59530
O1645       O  0.90755119  0.23189015  0.46526692    -0.52650
C1646       C  0.91481222  0.25079617  0.43628941     0.73110
Zr1647     Zr  0.99029570  0.28335181  0.44877315     2.54710
O1648       O  0.98909779  0.32846590  0.45226705    -0.80090
O1649       O  0.99039836  0.28319204  0.37347108    -0.93510
Zr1650     Zr  0.99027996  0.28439354  0.07174716     2.64680
O1651       O  0.98944328  0.32961479  0.06604791    -0.98470
O1652       O  0.99080483  0.28663484  0.14693884    -0.80530
O1653       O  0.51841443  0.29861200  0.01029157    -0.83890
O1654       O  0.96217454  0.27014525  0.01021431    -2.18590
O1655       O  0.94309907  0.17252833  0.42899188    -0.67280
O1656       O  0.90869727  0.17608768  0.46667429    -0.51840
C1657       C  0.91666470  0.16402925  0.43904140     0.71490
O1658       O  0.53969646  0.22315730  0.09547269    -0.60180
O1659       O  0.57337517  0.26056280  0.05634874    -0.52160
C1660       C  0.56596746  0.24135429  0.08494812     0.73300
O1661       O  0.94223922  0.17403187  0.09473007    -0.71580
O1662       O  0.90813864  0.17696798  0.05559567    -0.50260
C1663       C  0.91584899  0.16540492  0.08412049     0.74680
O1664       O  0.54013342  0.22275120  0.42757997    -0.66910
O1665       O  0.57369351  0.26047207  0.46652479    -0.54110
C1666       C  0.56636582  0.24116451  0.43796683     0.73060
Zr1667     Zr  0.99142118  0.20943719  0.45028933     2.77540
O1668       O  0.99317171  0.16461454  0.45387565    -0.97660
O1669       O  0.99080281  0.20912766  0.37503997    -0.78480
Zr1670     Zr  0.99099619  0.21030502  0.07325698     2.70070
O1671       O  0.99107669  0.16458800  0.07199963    -0.79730
O1672       O  0.99138631  0.21240149  0.14848044    -0.98810
Zr1673     Zr  0.54630356  0.27482265  0.01111597     2.21500
Zr1674     Zr  0.93503858  0.21838413  0.01073490     2.11130
O1675       O  0.96328220  0.19498853  0.01162785    -2.47500
O1676       O  0.51930338  0.22325827  0.01191970    -0.79520
O1677       O  0.96256315  0.23192214  0.44844367    -0.71710
O1678       O  0.51877513  0.26158390  0.07346358    -2.32670
O1679       O  0.51896036  0.26068859  0.44863217    -2.28880
O1680       O  0.96233578  0.23296757  0.07327215    -0.73470
H1681       H  0.94941338  0.27817250  0.00992701     0.78520
H1682       H  0.53123490  0.26805168  0.09746013     0.79610
H1683       H  0.95104997  0.17413652  0.01191191     0.81840
H1684       H  0.53147285  0.26688135  0.42468821     0.79440
H1685       H  0.49995314  0.27522262  0.15559640     0.42480
H1686       H  0.97497119  0.21537869  0.15574292     0.41450
H1687       H  0.50315935  0.16618015  0.04775109     0.41130
H1688       H  0.97586532  0.15118335  0.47017658     0.39060
H1689       H  0.97952492  0.21866723  0.36761065     0.42190
H1690       H  0.50664254  0.28008209  0.36565096     0.36980
H1691       H  0.50277658  0.33965285  0.47477096     0.43090
H1692       H  0.97047337  0.32407535  0.05327181     0.39510
H1693       H  0.98874424  0.15672519  0.42538846     0.44430
H1694       H  0.99704099  0.30355303  0.36565666     0.43150
H1695       H  0.98761135  0.33471526  0.09492662     0.43290
H1696       H  0.98507829  0.19231494  0.15739719     0.43640
O1697       O  0.76679614  0.44762914  0.42712293    -0.75230
O1698       O  0.72925729  0.41397115  0.46609524    -0.54190
C1699       C  0.74865194  0.42132702  0.43778725     0.78500
O1700       O  0.81339398  0.04605058  0.09561992    -0.59830
O1701       O  0.81015594  0.07966694  0.05573014    -0.52860
C1702       C  0.82150724  0.07234733  0.08503919     0.70520
O1703       O  0.76751986  0.44826210  0.09291917    -0.74390
O1704       O  0.72971950  0.41431216  0.05447901    -0.54950
C1705       C  0.74928307  0.42189991  0.08255293     0.76520
O1706       O  0.81326224  0.04556840  0.42470195    -0.59530
O1707       O  0.81010928  0.07928523  0.46485957    -0.52650
C1708       C  0.82151826  0.07188262  0.43558055     0.73110
Zr1709     Zr  0.77893920  0.49662078  0.44837669     2.54710
O1710       O  0.82542337  0.49827545  0.45221446    -0.80090
O1711       O  0.77899636  0.99625199  0.37306706    -0.93510
Zr1712     Zr  0.77968136  0.49700738  0.07130380     2.64680
O1713       O  0.82611850  0.49863711  0.06569786    -0.98470
O1714       O  0.78109592  0.99615901  0.14648624    -0.80530
O1715       O  0.76598924  0.46867955  0.00990679    -0.83890
O1716       O  0.79380654  0.02496330  0.00978892    -2.18590
O1717       O  0.71774341  0.04465141  0.42577009    -0.67280
O1718       O  0.75444192  0.07872871  0.46556406    -0.51840
C1719       C  0.73553488  0.07105600  0.43650369     0.71490
O1720       O  0.66904967  0.44718060  0.09464888    -0.60180
O1721       O  0.67299980  0.41347534  0.05556182    -0.52160
C1722       C  0.66108440  0.42086583  0.08414610     0.73300
O1723       O  0.71801843  0.04493083  0.09556369    -0.71580
O1724       O  0.75456482  0.07891323  0.05561578    -0.50260
C1725       C  0.73568397  0.07129572  0.08475077     0.74680
O1726       O  0.66864469  0.44686769  0.42738495    -0.66910
O1727       O  0.67271608  0.41322417  0.46609300    -0.54110
C1728       C  0.66073115  0.42057501  0.43771370     0.73060
Zr1729     Zr  0.70410389  0.49591481  0.44951427     2.77540
O1730       O  0.65832153  0.49564558  0.45478125    -0.97660
O1731       O  0.70233511  0.49506538  0.37431701    -0.78480
Zr1732     Zr  0.70479674  0.49612214  0.07262609     2.70070
O1733       O  0.65924859  0.49645248  0.07044203    -0.79730
O1734       O  0.70523133  0.49512155  0.14788505    -0.98810
Zr1735     Zr  0.71438813  0.44084895  0.01050415     2.21500
Zr1736     Zr  0.76912618  0.05203071  0.01042679     2.11130
O1737       O  0.71749731  0.02403103  0.01106050    -2.47500
O1738       O  0.68985632  0.46793594  0.01107265    -0.79520
O1739       O  0.75537150  0.02446394  0.44808994    -0.71710
O1740       O  0.72841252  0.46842477  0.07290763    -2.32670
O1741       O  0.72767288  0.46813398  0.44800042    -2.28880
O1742       O  0.75607479  0.02478928  0.07285112    -0.73470
H1743       H  0.81457248  0.03774530  0.00955041     0.78520
H1744       H  0.72240181  0.45596778  0.09687131     0.79610
H1745       H  0.70905014  0.03643097  0.01128083     0.81840
H1746       H  0.72143206  0.45556762  0.42406147     0.79440
H1747       H  0.76053228  0.48709992  0.15508458     0.42480
H1748       H  0.72477657  0.01095976  0.15574956     0.41450
H1749       H  0.64867606  0.48386328  0.04662933     0.41130
H1750       H  0.66345998  0.01474039  0.46688598     0.39060
H1751       H  0.72246729  0.00130352  0.36569120     0.42190
H1752       H  0.75999948  0.47950856  0.36518237     0.36980
H1753       H  0.82302476  0.48481723  0.47493314     0.43090
H1754       H  0.83953065  0.01793551  0.05382217     0.39510
H1755       H  0.65302263  0.49678196  0.42579769     0.44430
H1756       H  0.79332040  0.49032254  0.36542720     0.43150
H1757       H  0.83267582  0.49994538  0.09465691     0.43290
H1758       H  0.69192826  0.50213345  0.15651580     0.43640
C1759       C  0.72366462  0.11296283  0.21695959    -0.06060
C1760       C  0.74513362  0.13727403  0.23806904    -0.17190
C1761       C  0.74676393  0.13794334  0.28108626     0.11140
C1762       C  0.72616064  0.11390043  0.30420069    -0.05980
C1763       C  0.70448719  0.08956755  0.28319194    -0.17220
C1764       C  0.70280039  0.08896622  0.23991054     0.11170
S1765       S  0.77648370  0.16972273  0.30428569    -0.32180
S1766       S  0.67303854  0.05749977  0.21607344    -0.32190
H1767       H  0.67073893  0.07221569  0.18152657     0.29180
H1768       H  0.78166867  0.15458726  0.33562950     0.29170
H1769       H  0.76148123  0.15560968  0.22075893     0.19770
H1770       H  0.68842341  0.07116593  0.30067344     0.19770
C1771       C  0.87080097  0.25890771  0.30445218    -0.06060
C1772       C  0.87749479  0.28453414  0.28339500    -0.17190
C1773       C  0.87826787  0.28552723  0.24005114     0.11140
C1774       C  0.87242882  0.26040840  0.21742830    -0.05980
C1775       C  0.86533299  0.23477136  0.23859606    -0.17220
C1776       C  0.86376071  0.23358995  0.28166200     0.11170
S1777       S  0.88675229  0.31929612  0.21559636    -0.32180
S1778       S  0.85142523  0.19882376  0.30554894    -0.32190
H1779       H  0.83899710  0.20355085  0.34091074     0.29180
H1780       H  0.89886381  0.31513689  0.17939190     0.29170
H1781       H  0.88239049  0.30388725  0.30082360     0.19770
H1782       H  0.86005307  0.21524632  0.22130332     0.19770
C1783       C  0.87744373  0.11424398  0.30473040    -0.06060
C1784       C  0.86895281  0.08820029  0.28318441    -0.17190
C1785       C  0.86923858  0.08733171  0.23982306     0.11140
C1786       C  0.87698214  0.11287421  0.21697932    -0.05980
C1787       C  0.88616058  0.13894066  0.23860494    -0.17220
C1788       C  0.88680914  0.14005420  0.28165087     0.11170
S1789       S  0.86084096  0.05332164  0.21596089    -0.32180
S1790       S  0.89895804  0.17525497  0.30437539    -0.32190
H1791       H  0.87763848  0.16496150  0.33546767     0.29180
H1792       H  0.87903317  0.06582431  0.18152393     0.29170
H1793       H  0.86258804  0.06842934  0.30030537     0.19770
H1794       H  0.89201337  0.15872189  0.22180587     0.19770
C1795       C  0.60922564  0.23324861  0.21742990    -0.06060
C1796       C  0.62962387  0.25827710  0.23844019    -0.17190
C1797       C  0.62993862  0.25969940  0.28158333     0.11140
C1798       C  0.60980369  0.23529151  0.30447674    -0.05980
C1799       C  0.58930370  0.21026021  0.28350863    -0.17220
C1800       C  0.58893703  0.20889587  0.24023559     0.11170
S1801       S  0.65606369  0.29350357  0.30544585    -0.32180
S1802       S  0.56249662  0.17542824  0.21606310    -0.32190
H1803       H  0.57894772  0.17809166  0.18060703     0.29180
H1804       H  0.63880748  0.29146410  0.33963762     0.29170
H1805       H  0.64499503  0.27712779  0.22099260     0.19770
H1806       H  0.57383976  0.19150650  0.30101134     0.19770
C1807       C  0.60876515  0.37827348  0.30470227    -0.06060
C1808       C  0.60435836  0.35329416  0.28356193    -0.17190
C1809       C  0.60548162  0.35252537  0.24044472     0.11140
C1810       C  0.61035220  0.37709611  0.21726629    -0.05980
C1811       C  0.61478378  0.40212104  0.23833857    -0.17220
C1812       C  0.61384780  0.40294030  0.28159394     0.11170
S1813       S  0.60216347  0.32005756  0.21732401    -0.32180
S1814       S  0.61832620  0.43573882  0.30508683    -0.32190
H1815       H  0.60012245  0.42197279  0.33908852     0.29180
H1816       H  0.62200521  0.33443902  0.18514413     0.29170
H1817       H  0.60110018  0.33449016  0.30092260     0.19770
H1818       H  0.61839446  0.42100615  0.22088515     0.19770
C1819       C  0.75215964  0.37743324  0.21698510    -0.06060
C1820       C  0.76989008  0.36894511  0.23773914    -0.17190
C1821       C  0.77056583  0.36803679  0.28101541     0.11140
C1822       C  0.75328813  0.37618997  0.30447359    -0.05980
C1823       C  0.73545257  0.38453783  0.28368497    -0.17220
C1824       C  0.73450297  0.38511761  0.24044377     0.11170
S1825       S  0.79476562  0.35785507  0.30529758    -0.32180
S1826       S  0.70905761  0.39369791  0.21618233    -0.32190
H1827       H  0.70081762  0.40274864  0.25209559     0.29180
H1828       H  0.80048892  0.34620381  0.26977526     0.29170
H1829       H  0.78364846  0.36339564  0.21983437     0.19770
H1830       H  0.72151010  0.38984804  0.30156942     0.19770
C1831       C  0.75186236  0.37701421  0.67098656     0.03200
C1832       C  0.74921818  0.35278719  0.64952424    -0.12950
C1833       C  0.74692171  0.35124100  0.60631810     0.00700
C1834       C  0.74632478  0.37364432  0.58446260    -0.11480
C1835       C  0.75034521  0.39854914  0.60528392     0.03190
C1836       C  0.75414951  0.40054880  0.64829961    -0.10900
H1837       H  0.74818589  0.33473420  0.66645659     0.08780
H1838       H  0.74382149  0.37218850  0.55114270     0.06310
H1839       H  0.75772213  0.41999776  0.66427127     0.06160
C1840       C  0.75265792  0.37579727  0.85049238     0.03200
C1841       C  0.75379785  0.39921477  0.87250381    -0.12950
C1842       C  0.74979206  0.39773188  0.91550446     0.00700
C1843       C  0.74594994  0.37317743  0.93693823    -0.11480
C1844       C  0.74639758  0.35042796  0.91566659     0.03190
C1845       C  0.74868747  0.35135175  0.87248676    -0.10900
H1846       H  0.75673577  0.41819370  0.85595475     0.08780
H1847       H  0.74352767  0.37218348  0.97027084     0.06310
H1848       H  0.74668455  0.33265006  0.85610105     0.06160
C1849       C  0.60957247  0.37803405  0.85058756     0.03200
C1850       C  0.63385559  0.39920406  0.87219828    -0.12950
C1851       C  0.63595568  0.39731684  0.91519610     0.00700
C1852       C  0.61394364  0.37359442  0.93655486    -0.11480
C1853       C  0.58916872  0.35269053  0.91552433     0.03190
C1854       C  0.58703770  0.35514227  0.87264726    -0.10900
H1855       H  0.65151169  0.41677693  0.85544059     0.08780
H1856       H  0.61557421  0.37200059  0.96973772     0.06310
H1857       H  0.56819932  0.33873003  0.85618295     0.06160
C1858       C  0.61072258  0.37715875  0.67137464     0.03200
C1859       C  0.58752475  0.35514069  0.64901856    -0.12950
C1860       C  0.58924913  0.35323422  0.60596016     0.00700
C1861       C  0.61399495  0.37418765  0.58498589    -0.11480
C1862       C  0.63630934  0.39757790  0.60661206     0.03190
C1863       C  0.63460756  0.39890970  0.64982142    -0.10900
H1864       H  0.56862746  0.33878615  0.66536762     0.08780
H1865       H  0.61537211  0.37289681  0.55168121     0.06310
H1866       H  0.65231067  0.41636997  0.66677169     0.06160
C1867       C  0.60929158  0.23396720  0.67184464     0.03200
C1868       C  0.58732090  0.23570284  0.65043445    -0.12950
C1869       C  0.58919958  0.23983882  0.60742753     0.00700
C1870       C  0.61311232  0.24197494  0.58594759    -0.11480
C1871       C  0.63442100  0.23879895  0.60693103     0.03190
C1872       C  0.63250901  0.23500764  0.64992240    -0.10900
H1873       H  0.56929833  0.23477518  0.66742058     0.08780
H1874       H  0.61453948  0.24494650  0.55271179     0.06310
H1875       H  0.64939793  0.23349660  0.66650367     0.06160
C1876       C  0.61002397  0.23537491  0.85008729     0.03200
C1877       C  0.58784797  0.23642754  0.87202771    -0.12950
C1878       C  0.58962852  0.23992812  0.91513876     0.00700
C1879       C  0.61352267  0.24188653  0.93627511    -0.11480
C1880       C  0.63493127  0.23909328  0.91479479     0.03190
C1881       C  0.63314628  0.23593630  0.87163832    -0.10900
H1882       H  0.56980941  0.23566040  0.85537458     0.08780
H1883       H  0.61486448  0.24443438  0.96960357     0.06310
H1884       H  0.65011684  0.23474941  0.85468697     0.06160
C1885       C  0.87550207  0.11377618  0.85072796     0.03200
C1886       C  0.89820458  0.13505412  0.87455830    -0.12950
C1887       C  0.89398477  0.13888835  0.91637472     0.00700
C1888       C  0.86804195  0.11894921  0.93579246    -0.11480
C1889       C  0.84667729  0.09510672  0.91366932     0.03190
C1890       C  0.85018087  0.09299640  0.87093701    -0.10900
H1891       H  0.91858522  0.14994262  0.85983713     0.08780
H1892       H  0.86514133  0.12117841  0.96851334     0.06310
H1893       H  0.83284767  0.07565113  0.85334350     0.06160
C1894       C  0.87460992  0.11351308  0.67113184     0.03200
C1895       C  0.89652808  0.13666001  0.64861631    -0.12950
C1896       C  0.89288072  0.14038476  0.60659919     0.00700
C1897       C  0.86755293  0.11992721  0.58628528    -0.11480
C1898       C  0.84626363  0.09564000  0.60761976     0.03190
C1899       C  0.84950206  0.09299102  0.65021561    -0.10900
H1900       H  0.91616927  0.15244193  0.66423371     0.08780
H1901       H  0.86505908  0.12218264  0.55347851     0.06310
H1902       H  0.83213755  0.07526782  0.66711008     0.06160
C1903       C  0.87181484  0.25927392  0.67187352     0.03200
C1904       C  0.89356972  0.25723863  0.65022065    -0.12950
C1905       C  0.89131629  0.25244831  0.60735894     0.00700
C1906       C  0.86679091  0.24927692  0.58635270    -0.11480
C1907       C  0.84540417  0.25234186  0.60760748     0.03190
C1908       C  0.84813817  0.25748091  0.65039469    -0.10900
H1909       H  0.91192625  0.25876523  0.66694182     0.08780
H1910       H  0.86495300  0.24564546  0.55322921     0.06310
H1911       H  0.83135817  0.25906596  0.66726128     0.06160
C1912       C  0.87120346  0.25876733  0.85003320     0.03200
C1913       C  0.84801059  0.25756302  0.87216323    -0.12950
C1914       C  0.84561967  0.25251498  0.91491327     0.00700
C1915       C  0.86703978  0.24925599  0.93558045    -0.11480
C1916       C  0.89129979  0.25213600  0.91400389     0.03190
C1917       C  0.89315443  0.25674304  0.87111297    -0.10900
H1918       H  0.83109585  0.25912198  0.85573497     0.08780
H1919       H  0.86542834  0.24567530  0.96868708     0.06310
H1920       H  0.91117452  0.25785044  0.85389611     0.06160
C1921       C  0.72691595  0.11389617  0.84997042     0.03200
C1922       C  0.72727034  0.13669517  0.87235280    -0.12950
C1923       C  0.73264353  0.13941871  0.91498546     0.00700
C1924       C  0.73642064  0.11837996  0.93564134    -0.11480
C1925       C  0.73373736  0.09418103  0.91412477     0.03190
C1926       C  0.72904403  0.09207538  0.87123134    -0.10900
H1927       H  0.72469940  0.15309153  0.85616122     0.08780
H1928       H  0.74021523  0.12020397  0.96871526     0.06310
H1929       H  0.72820835  0.07408902  0.85419707     0.06160
C1930       C  0.72517640  0.11321227  0.67124353     0.03200
C1931       C  0.72814878  0.09183845  0.64990215    -0.12950
C1932       C  0.73366799  0.09435200  0.60721174     0.00700
C1933       C  0.73657374  0.11865197  0.58597644    -0.11480
C1934       C  0.73262007  0.13961281  0.60677809     0.03190
C1935       C  0.72681642  0.13669318  0.64930428    -0.10900
H1936       H  0.72715741  0.07377458  0.66674414     0.08780
H1937       H  0.74071862  0.12063602  0.55298708     0.06310
H1938       H  0.72442884  0.15319568  0.66568925     0.06160
O1939       O  0.76359613  0.31826138  0.59482080    -0.75230
O1940       O  0.72622538  0.31453302  0.55558119    -0.54130
C1941       C  0.74542477  0.32638036  0.58413466     0.78500
O1942       O  0.81250190  0.26893510  0.92721497    -0.59830
O1943       O  0.80930795  0.23182723  0.96645003    -0.52860
C1944       C  0.82087194  0.25093051  0.93771352     0.70520
O1945       O  0.76347493  0.31796457  0.92797545    -0.74390
O1946       O  0.72602186  0.31434375  0.96705952    -0.54950
C1947       C  0.74514577  0.32597932  0.93840127     0.76520
O1948       O  0.81206478  0.26860672  0.59606456    -0.59530
O1949       O  0.80902838  0.23168591  0.55617889    -0.52650
C1950       C  0.82051107  0.25068151  0.58519507     0.73110
Zr1951     Zr  0.77675710  0.28223143  0.57331360     2.54710
O1952       O  0.82266950  0.32767489  0.57022850    -0.80090
O1953       O  0.77675421  0.28219607  0.64862345    -0.93510
Zr1954     Zr  0.77736063  0.28273603  0.95029913     2.64680
O1955       O  0.82274880  0.32859009  0.95575195    -0.98470
O1956       O  0.77921275  0.28462126  0.87510438    -0.80530
O1957       O  0.76368810  0.29722547  0.51184539    -0.83890
O1958       O  0.79177650  0.26915389  0.51175291    -2.18590
O1959       O  0.71605813  0.17261896  0.59478509    -0.67280
O1960       O  0.75338048  0.17601711  0.55564470    -0.51840
C1961       C  0.73418151  0.16436977  0.58426103     0.71490
O1962       O  0.66722169  0.22152188  0.92667067    -0.60180
O1963       O  0.67094091  0.25884771  0.96630996    -0.52160
C1964       C  0.65925362  0.23985003  0.93739696     0.73300
O1965       O  0.71620878  0.17253596  0.92702057    -0.71580
O1966       O  0.75344327  0.17595633  0.96623870    -0.50260
C1967       C  0.73423799  0.16423202  0.93761064     0.74680
O1968       O  0.66667264  0.22125482  0.59455505    -0.66910
O1969       O  0.67057692  0.25877488  0.55557046    -0.54110
C1970       C  0.65874825  0.23963174  0.58413591     0.73060
Zr1971     Zr  0.70225001  0.20777346  0.57210636     2.77540
O1972       O  0.65654520  0.16217666  0.56722774    -0.97660
O1973       O  0.70090300  0.20669563  0.64731585    -0.78480
Zr1974     Zr  0.70291694  0.20825083  0.94907616     2.70070
O1975       O  0.65735929  0.16240321  0.95111131    -0.79730
O1976       O  0.70372892  0.20945502  0.87381364    -0.98810
Zr1977     Zr  0.71209557  0.27291127  0.51127989     2.21500
Zr1978     Zr  0.76771181  0.21747652  0.51109193     2.11130
O1979       O  0.71602641  0.19342049  0.51057681    -2.47500
O1980       O  0.68773983  0.22129776  0.51061943    -0.79520
O1981       O  0.75360790  0.23085972  0.57354457    -0.71710
O1982       O  0.72611868  0.25949072  0.94880502    -2.32670
O1983       O  0.72548997  0.25905457  0.57376155    -2.28880
O1984       O  0.75428987  0.23135343  0.94866002    -0.73470
H1985       H  0.81258129  0.27741626  0.51196069     0.78520
H1986       H  0.71994424  0.26576511  0.92483295     0.79610
H1987       H  0.70776733  0.17260394  0.51036549     0.81840
H1988       H  0.71914780  0.26526161  0.59772339     0.79440
H1989       H  0.75865311  0.27373331  0.86631801     0.42480
H1990       H  0.72337573  0.21330129  0.86624971     0.41450
H1991       H  0.64693127  0.16423333  0.97526932     0.41130
H1992       H  0.66149520  0.14861191  0.55330552     0.39060
H1993       H  0.72129258  0.21969917  0.65575052     0.42190
H1994       H  0.75754073  0.27937922  0.65657687     0.36980
H1995       H  0.82010570  0.33863310  0.54751638     0.43090
H1996       H  0.83644276  0.32360551  0.96902267     0.39510
H1997       H  0.65207197  0.15510276  0.59606700     0.44430
H1998       H  0.79067211  0.30251414  0.65648546     0.43150
H1999       H  0.82971831  0.33344698  0.92689340     0.43290
H2000       H  0.69061105  0.18909201  0.86526322     0.43640
O2001       O  0.53939296  0.31983567  0.92753285    -0.75230
O2002       O  0.57324247  0.31628502  0.96654360    -0.54130
C2003       C  0.56575503  0.32807350  0.93808810     0.78500
O2004       O  0.94107466  0.26959486  0.59518063    -0.59830
O2005       O  0.90748995  0.23229907  0.55560743    -0.52860
C2006       C  0.91477262  0.25128657  0.58460717     0.70520
O2007       O  0.53937216  0.32070130  0.59360684    -0.74390
O2008       O  0.57323153  0.31671260  0.55504230    -0.54950
C2009       C  0.56574697  0.32874280  0.58325976     0.76520
O2010       O  0.94112174  0.26897664  0.92558722    -0.59530
O2011       O  0.90755119  0.23189016  0.96526693    -0.52650
C2012       C  0.91481223  0.25079618  0.93628942     0.73110
Zr2013     Zr  0.99029571  0.28335182  0.94877316     2.54710
O2014       O  0.98909780  0.32846591  0.95226706    -0.80090
O2015       O  0.99039836  0.28319205  0.87347108    -0.93510
Zr2016     Zr  0.99027995  0.28439353  0.57174715     2.64680
O2017       O  0.98944328  0.32961478  0.56604789    -0.98470
O2018       O  0.99080483  0.28663485  0.64693883    -0.80530
O2019       O  0.51841443  0.29861200  0.51029157    -0.83890
O2020       O  0.96217454  0.27014525  0.51021431    -2.18590
O2021       O  0.94309906  0.17252834  0.92899188    -0.67280
O2022       O  0.90869727  0.17608768  0.96667429    -0.51840
C2023       C  0.91666469  0.16402926  0.93904140     0.71490
O2024       O  0.53969647  0.22315732  0.59547269    -0.60180
O2025       O  0.57337518  0.26056282  0.55634873    -0.52160
C2026       C  0.56596747  0.24135431  0.58494811     0.73300
O2027       O  0.94223922  0.17403187  0.59473006    -0.71580
O2028       O  0.90813864  0.17696798  0.55559566    -0.50260
C2029       C  0.91584899  0.16540491  0.58412049     0.74680
O2030       O  0.54013340  0.22275119  0.92757997    -0.66910
O2031       O  0.57369350  0.26047205  0.96652479    -0.54110
C2032       C  0.56636580  0.24116449  0.93796682     0.73060
Zr2033     Zr  0.99142117  0.20943719  0.95028934     2.77540
O2034       O  0.99317170  0.16461454  0.95387565    -0.97660
O2035       O  0.99080280  0.20912766  0.87503997    -0.78480
Zr2036     Zr  0.99099619  0.21030502  0.57325698     2.70070
O2037       O  0.99107670  0.16458800  0.57199964    -0.79730
O2038       O  0.99138631  0.21240149  0.64848044    -0.98810
Zr2039     Zr  0.54630356  0.27482266  0.51111597     2.21500
Zr2040     Zr  0.93503858  0.21838412  0.51073490     2.11130
O2041       O  0.96328221  0.19498853  0.51162784    -2.47500
O2042       O  0.51930339  0.22325828  0.51191970    -0.79520
O2043       O  0.96256315  0.23192214  0.94844367    -0.71710
O2044       O  0.51877513  0.26158391  0.57346358    -2.32670
O2045       O  0.51896035  0.26068859  0.94863217    -2.28880
O2046       O  0.96233578  0.23296757  0.57327215    -0.73470
H2047       H  0.94941338  0.27817250  0.50992701     0.78520
H2048       H  0.53123491  0.26805169  0.59746013     0.79610
H2049       H  0.95104998  0.17413652  0.51191191     0.81840
H2050       H  0.53147285  0.26688135  0.92468822     0.79440
H2051       H  0.49995312  0.27522262  0.65559640     0.42480
H2052       H  0.97497119  0.21537869  0.65574292     0.41450
H2053       H  0.50315936  0.16618016  0.54775110     0.41130
H2054       H  0.97586531  0.15118335  0.97017658     0.39060
H2055       H  0.97952491  0.21866723  0.86761066     0.42190
H2056       H  0.50664254  0.28008209  0.86565097     0.36980
H2057       H  0.50277659  0.33965285  0.97477098     0.43090
H2058       H  0.97047335  0.32407534  0.55327181     0.39510
H2059       H  0.98874423  0.15672519  0.92538846     0.44430
H2060       H  0.99704099  0.30355303  0.86565666     0.43150
H2061       H  0.98761135  0.33471526  0.59492661     0.43290
H2062       H  0.98507829  0.19231495  0.65739719     0.43640
O2063       O  0.76679613  0.44762913  0.92712295    -0.75230
O2064       O  0.72925728  0.41397113  0.96609525    -0.54190
C2065       C  0.74865193  0.42132701  0.93778726     0.78500
O2066       O  0.81339397  0.04605057  0.59561992    -0.59830
O2067       O  0.81015594  0.07966694  0.55573014    -0.52860
C2068       C  0.82150724  0.07234733  0.58503919     0.70520
O2069       O  0.76751981  0.44826208  0.59291920    -0.74390
O2070       O  0.72971946  0.41431215  0.55447903    -0.54950
C2071       C  0.74928302  0.42189990  0.58255296     0.76520
O2072       O  0.81326225  0.04556840  0.92470194    -0.59530
O2073       O  0.81010929  0.07928523  0.96485957    -0.52650
C2074       C  0.82151826  0.07188262  0.93558054     0.73110
Zr2075     Zr  0.77893921  0.49662078  0.94837669     2.54710
O2076       O  0.82542338  0.49827544  0.95221446    -0.80090
O2077       O  0.77899637  0.99625197  0.87306705    -0.93510
Zr2078     Zr  0.77968134  0.49700738  0.57130381     2.64680
O2079       O  0.82611847  0.49863708  0.56569786    -0.98470
O2080       O  0.78109591  0.99615902  0.64648625    -0.80530
O2081       O  0.76598922  0.46867954  0.50990679    -0.83890
O2082       O  0.79380653  0.02496330  0.50978893    -2.18590
O2083       O  0.71774341  0.04465140  0.92577008    -0.67280
O2084       O  0.75444192  0.07872870  0.96556405    -0.51840
C2085       C  0.73553489  0.07105599  0.93650369     0.71490
O2086       O  0.66904966  0.44718061  0.59464888    -0.60180
O2087       O  0.67299978  0.41347535  0.55556182    -0.52160
C2088       C  0.66108438  0.42086584  0.58414610     0.73300
O2089       O  0.71801842  0.04493084  0.59556369    -0.71580
O2090       O  0.75456482  0.07891323  0.55561578    -0.50260
C2091       C  0.73568397  0.07129573  0.58475077     0.74680
O2092       O  0.66864470  0.44686768  0.92738495    -0.66910
O2093       O  0.67271609  0.41322416  0.96609301    -0.54110
C2094       C  0.66073116  0.42057500  0.93771371     0.73060
Zr2095     Zr  0.70410390  0.49591481  0.94951427     2.77540
O2096       O  0.65832154  0.49564557  0.95478122    -0.97660
O2097       O  0.70233513  0.49506536  0.87431701    -0.78480
Zr2098     Zr  0.70479672  0.49612215  0.57262609     2.70070
O2099       O  0.65924858  0.49645249  0.57044202    -0.79730
O2100       O  0.70523131  0.49512156  0.64788504    -0.98810
Zr2101     Zr  0.71438812  0.44084896  0.51050414     2.21500
Zr2102     Zr  0.76912618  0.05203072  0.51042679     2.11130
O2103       O  0.71749731  0.02403104  0.51106050    -2.47500
O2104       O  0.68985631  0.46793594  0.51107265    -0.79520
O2105       O  0.75537150  0.02446394  0.94808994    -0.71710
O2106       O  0.72841250  0.46842477  0.57290762    -2.32670
O2107       O  0.72767289  0.46813397  0.94800042    -2.28880
O2108       O  0.75607478  0.02478928  0.57285112    -0.73470
H2109       H  0.81457247  0.03774530  0.50955042     0.78520
H2110       H  0.72240179  0.45596778  0.59687131     0.79610
H2111       H  0.70905014  0.03643098  0.51128082     0.81840
H2112       H  0.72143207  0.45556761  0.92406148     0.79440
H2113       H  0.76053227  0.48709996  0.65508459     0.42480
H2114       H  0.72477655  0.01095977  0.65574956     0.41450
H2115       H  0.64867604  0.48386327  0.54662934     0.41130
H2116       H  0.66345998  0.01474038  0.96688598     0.39060
H2117       H  0.72246730  0.00130351  0.86569121     0.42190
H2118       H  0.75999949  0.47950855  0.86518237     0.36980
H2119       H  0.82302478  0.48481724  0.97493315     0.43090
H2120       H  0.83953062  0.01793547  0.55382216     0.39510
H2121       H  0.65302266  0.49678197  0.92579767     0.44430
H2122       H  0.79332041  0.49032252  0.86542721     0.43150
H2123       H  0.83267579  0.49994535  0.59465691     0.43290
H2124       H  0.69192824  0.50213346  0.65651580     0.43640
C2125       C  0.72366461  0.11296283  0.71695958    -0.06060
C2126       C  0.74513361  0.13727403  0.73806904    -0.17190
C2127       C  0.74676393  0.13794333  0.78108626     0.11140
C2128       C  0.72616064  0.11390042  0.80420068    -0.05980
C2129       C  0.70448718  0.08956754  0.78319193    -0.17220
C2130       C  0.70280038  0.08896622  0.73991054     0.11170
S2131       S  0.77648370  0.16972272  0.80428569    -0.32180
S2132       S  0.67303852  0.05749978  0.71607343    -0.32190
H2133       H  0.67073892  0.07221570  0.68152657     0.29180
H2134       H  0.78166867  0.15458725  0.83562950     0.29170
H2135       H  0.76148123  0.15560968  0.72075893     0.19770
H2136       H  0.68842341  0.07116592  0.80067343     0.19770
C2137       C  0.87080098  0.25890773  0.80445218    -0.06060
C2138       C  0.87749481  0.28453414  0.78339500    -0.17190
C2139       C  0.87826788  0.28552724  0.74005114     0.11140
C2140       C  0.87242883  0.26040840  0.71742831    -0.05980
C2141       C  0.86533300  0.23477136  0.73859608    -0.17220
C2142       C  0.86376071  0.23358996  0.78166202     0.11170
S2143       S  0.88675230  0.31929612  0.71559636    -0.32180
S2144       S  0.85142523  0.19882377  0.80554896    -0.32190
H2145       H  0.83899710  0.20355087  0.84091075     0.29180
H2146       H  0.89886382  0.31513689  0.67939189     0.29170
H2147       H  0.88239050  0.30388726  0.80082360     0.19770
H2148       H  0.86005307  0.21524632  0.72130334     0.19770
C2149       C  0.87744373  0.11424398  0.80473039    -0.06060
C2150       C  0.86895281  0.08820029  0.78318441    -0.17190
C2151       C  0.86923858  0.08733171  0.73982306     0.11140
C2152       C  0.87698215  0.11287421  0.71697931    -0.05980
C2153       C  0.88616058  0.13894066  0.73860493    -0.17220
C2154       C  0.88680914  0.14005420  0.78165086     0.11170
S2155       S  0.86084096  0.05332164  0.71596089    -0.32180
S2156       S  0.89895804  0.17525497  0.80437537    -0.32190
H2157       H  0.87763848  0.16496150  0.83546765     0.29180
H2158       H  0.87903317  0.06582430  0.68152393     0.29170
H2159       H  0.86258805  0.06842934  0.80030537     0.19770
H2160       H  0.89201337  0.15872189  0.72180585     0.19770
C2161       C  0.60922563  0.23324862  0.71742990    -0.06060
C2162       C  0.62962386  0.25827710  0.73844019    -0.17190
C2163       C  0.62993860  0.25969940  0.78158334     0.11140
C2164       C  0.60980367  0.23529150  0.80447673    -0.05980
C2165       C  0.58930369  0.21026021  0.78350861    -0.17220
C2166       C  0.58893703  0.20889587  0.74023557     0.11170
S2167       S  0.65606367  0.29350356  0.80544588    -0.32180
S2168       S  0.56249663  0.17542825  0.71606307    -0.32190
H2169       H  0.57894774  0.17809167  0.68060700     0.29180
H2170       H  0.63880745  0.29146408  0.83963764     0.29170
H2171       H  0.64499502  0.27712780  0.72099262     0.19770
H2172       H  0.57383975  0.19150649  0.80101131     0.19770
C2173       C  0.60876515  0.37827348  0.80470228    -0.06060
C2174       C  0.60435836  0.35329417  0.78356193    -0.17190
C2175       C  0.60548162  0.35252538  0.74044472     0.11140
C2176       C  0.61035219  0.37709612  0.71726630    -0.05980
C2177       C  0.61478377  0.40212105  0.73833858    -0.17220
C2178       C  0.61384779  0.40294030  0.78159395     0.11170
S2179       S  0.60216347  0.32005757  0.71732400    -0.32180
S2180       S  0.61832620  0.43573882  0.80508685    -0.32190
H2181       H  0.60012245  0.42197278  0.83908855     0.29180
H2182       H  0.62200521  0.33443903  0.68514412     0.29170
H2183       H  0.60110019  0.33449016  0.80092259     0.19770
H2184       H  0.61839445  0.42100615  0.72088517     0.19770
C2185       C  0.75215969  0.37743328  0.71698513    -0.06060
C2186       C  0.76989029  0.36894535  0.73773916    -0.17190
C2187       C  0.77056607  0.36803707  0.78101543     0.11140
C2188       C  0.75328822  0.37619005  0.80447359    -0.05980
C2189       C  0.73545250  0.38453772  0.78368499    -0.17220
C2190       C  0.73450288  0.38511746  0.74044379     0.11170
S2191       S  0.79476606  0.35785563  0.80529764    -0.32180
S2192       S  0.70905733  0.39369750  0.71618232    -0.32190
H2193       H  0.70081710  0.40274797  0.75209561     0.29180
H2194       H  0.80048967  0.34620465  0.76977529     0.29170
H2195       H  0.78364877  0.36339601  0.71983438     0.19770
H2196       H  0.72150993  0.38984779  0.80156944     0.19770
C2197       C  0.75186155  0.87701370  0.17098569     0.03200
C2198       C  0.74921609  0.85278612  0.14952328    -0.12950
C2199       C  0.74692113  0.85124061  0.10631706     0.00700
C2200       C  0.74632562  0.87364455  0.08446134    -0.11480
C2201       C  0.75034680  0.89854965  0.10528266     0.03190
C2202       C  0.75415114  0.90054922  0.14829836    -0.10900
H2203       H  0.74818188  0.83473220  0.16645545     0.08780
H2204       H  0.74382276  0.87218895  0.05114138     0.06310
H2205       H  0.75772558  0.91999894  0.16426958     0.06160
C2206       C  0.75265511  0.87579511  0.35049249     0.03200
C2207       C  0.75379749  0.89921394  0.37250378    -0.12950
C2208       C  0.74979258  0.89773196  0.41550465     0.00700
C2209       C  0.74595043  0.87317773  0.43693905    -0.11480
C2210       C  0.74639597  0.85042715  0.41566761     0.03190
C2211       C  0.74868307  0.85134928  0.37248762    -0.10900
H2212       H  0.75673647  0.91819320  0.35595459     0.08780
H2213       H  0.74352948  0.87218464  0.47027185     0.06310
H2214       H  0.74667697  0.83264604  0.35610270     0.06160
C2215       C  0.60957239  0.87803435  0.35058777     0.03200
C2216       C  0.63385556  0.89920431  0.37219848    -0.12950
C2217       C  0.63595576  0.89731697  0.41519628     0.00700
C2218       C  0.61394374  0.87359452  0.43655501    -0.11480
C2219       C  0.58916875  0.85269071  0.41552451     0.03190
C2220       C  0.58703764  0.85514256  0.37264749    -0.10900
H2221       H  0.65151163  0.91677721  0.35544079     0.08780
H2222       H  0.61557439  0.87200060  0.46973784     0.06310
H2223       H  0.56819922  0.83873036  0.35618320     0.06160
C2224       C  0.61072252  0.87715890  0.17137475     0.03200
C2225       C  0.58752474  0.85514083  0.14901859    -0.12950
C2226       C  0.58924927  0.85323421  0.10596023     0.00700
C2227       C  0.61399522  0.87418755  0.08498605    -0.11480
C2228       C  0.63630959  0.89757783  0.10661224     0.03190
C2229       C  0.63460762  0.89890975  0.14982158    -0.10900
H2230       H  0.56862737  0.83878636  0.16536760     0.08780
H2231       H  0.61537251  0.87289663  0.05168140     0.06310
H2232       H  0.65231069  0.91637004  0.16677190     0.06160
C2233       C  0.60929188  0.73396737  0.17184450     0.03200
C2234       C  0.58732122  0.73570305  0.15043432    -0.12950
C2235       C  0.58919979  0.73983878  0.10742736     0.00700
C2236       C  0.61311238  0.74197460  0.08594738    -0.11480
C2237       C  0.63442101  0.73879855  0.10693085     0.03190
C2238       C  0.63250915  0.73500750  0.14992224    -0.10900
H2239       H  0.56929876  0.73477560  0.16742047     0.08780
H2240       H  0.61453945  0.74494598  0.05271155     0.06310
H2241       H  0.64939806  0.73349643  0.16650351     0.06160
C2242       C  0.61002448  0.73537548  0.35008702     0.03200
C2243       C  0.58784849  0.73642813  0.37202744    -0.12950
C2244       C  0.58962893  0.73992847  0.41513853     0.00700
C2245       C  0.61352297  0.74188663  0.43627488    -0.11480
C2246       C  0.63493153  0.73909334  0.41479452     0.03190
C2247       C  0.63314666  0.73593662  0.37163803    -0.10900
H2248       H  0.56980999  0.73566112  0.35537431     0.08780
H2249       H  0.61486470  0.74443430  0.46960337     0.06310
H2250       H  0.65011719  0.73474969  0.35468666     0.06160
C2251       C  0.87550218  0.61377596  0.35072780     0.03200
C2252       C  0.89820474  0.63505389  0.37455808    -0.12950
C2253       C  0.89398503  0.63888808  0.41637456     0.00700
C2254       C  0.86804224  0.61894890  0.43579238    -0.11480
C2255       C  0.84667751  0.59510642  0.41366928     0.03190
C2256       C  0.85018101  0.59299615  0.37093693    -0.10900
H2257       H  0.91858534  0.64994240  0.35983686     0.08780
H2258       H  0.86514169  0.62117809  0.46851329     0.06310
H2259       H  0.83284777  0.57565090  0.35334345     0.06160
C2260       C  0.87461004  0.61351277  0.17113160     0.03200
C2261       C  0.89652825  0.63665966  0.14861604    -0.12950
C2262       C  0.89288094  0.64038436  0.10659888     0.00700
C2263       C  0.86755314  0.61992680  0.08628497    -0.11480
C2264       C  0.84626378  0.59563965  0.10761949     0.03190
C2265       C  0.84950218  0.59299072  0.15021537    -0.10900
H2266       H  0.91616943  0.65244158  0.16423345     0.08780
H2267       H  0.86505931  0.62218221  0.05347818     0.06310
H2268       H  0.83213762  0.57526758  0.16710986     0.06160
C2269       C  0.87181480  0.75927346  0.17187332     0.03200
C2270       C  0.89356967  0.75723818  0.15022043    -0.12950
C2271       C  0.89131628  0.75244795  0.10735871     0.00700
C2272       C  0.86679093  0.74927664  0.08635246    -0.11480
C2273       C  0.84540419  0.75234160  0.10760726     0.03190
C2274       C  0.84813817  0.75748056  0.15039450    -0.10900
H2275       H  0.91192618  0.75876472  0.16694160     0.08780
H2276       H  0.86495304  0.74564524  0.05322896     0.06310
H2277       H  0.83135818  0.75906561  0.16726111     0.06160
C2278       C  0.87120342  0.75876682  0.35003302     0.03200
C2279       C  0.84801066  0.75756277  0.37216305    -0.12950
C2280       C  0.84561979  0.75251492  0.41491313     0.00700
C2281       C  0.86703987  0.74925586  0.43558035    -0.11480
C2282       C  0.89129979  0.75213563  0.41400378     0.03190
C2283       C  0.89315435  0.75674248  0.37111281    -0.10900
H2284       H  0.83109595  0.75912177  0.35573475     0.08780
H2285       H  0.86542847  0.74567529  0.46868701     0.06310
H2286       H  0.91117437  0.75784973  0.35389596     0.06160
C2287       C  0.72691603  0.61389604  0.34996999     0.03200
C2288       C  0.72727048  0.63669507  0.37235237    -0.12950
C2289       C  0.73264382  0.63941870  0.41498500     0.00700
C2290       C  0.73642099  0.61837998  0.43564086    -0.11480
C2291       C  0.73373762  0.59418101  0.41412432     0.03190
C2292       C  0.72904417  0.59207529  0.37123091    -0.10900
H2293       H  0.72469946  0.65309139  0.35616080     0.08780
H2294       H  0.74021565  0.62020403  0.46871476     0.06310
H2295       H  0.72820843  0.57408889  0.35419666     0.06160
C2296       C  0.72517624  0.61321202  0.17124311     0.03200
C2297       C  0.72814869  0.59183825  0.14990175    -0.12950
C2298       C  0.73366805  0.59435187  0.10721139     0.00700
C2299       C  0.73657387  0.61865185  0.08597608    -0.11480
C2300       C  0.73262013  0.63961264  0.10677770     0.03190
C2301       C  0.72681632  0.63669294  0.14930385    -0.10900
H2302       H  0.72715727  0.57377435  0.16674374     0.08780
H2303       H  0.74071883  0.62063594  0.05298674     0.06310
H2304       H  0.72442867  0.65319542  0.16568878     0.06160
O2305       O  0.76359571  0.81826109  0.09482011    -0.75230
O2306       O  0.72622482  0.81453246  0.05558057    -0.54130
C2307       C  0.74542425  0.82637995  0.08413388     0.78500
O2308       O  0.81250199  0.76893512  0.42721484    -0.59830
O2309       O  0.80930809  0.73182725  0.46644987    -0.52860
C2310       C  0.82087207  0.75093053  0.43771337     0.70520
O2311       O  0.76347419  0.81796448  0.42797652    -0.74390
O2312       O  0.72602088  0.81434317  0.46706053    -0.54950
C2313       C  0.74514474  0.82597890  0.43840238     0.76520
O2314       O  0.81206468  0.76860640  0.09606450    -0.59530
O2315       O  0.80902846  0.73168578  0.05617856    -0.52650
C2316       C  0.82051107  0.75068128  0.08519487     0.73110
Zr2317     Zr  0.77675695  0.78223114  0.07331361     2.54710
O2318       O  0.82266944  0.82767454  0.07022912    -0.80090
O2319       O  0.77675387  0.78219588  0.14862346    -0.93510
Zr2320     Zr  0.77736072  0.78273616  0.45029909     2.64680
O2321       O  0.82274902  0.82859015  0.45575145    -0.98470
O2322       O  0.77921284  0.78462187  0.37510435    -0.80530
O2323       O  0.76368796  0.79722521  0.01184544    -0.83890
O2324       O  0.79177646  0.76915381  0.01175282    -2.18590
O2325       O  0.71605807  0.67261862  0.09478461    -0.67280
O2326       O  0.75338057  0.67601698  0.05564436    -0.51840
C2327       C  0.73418155  0.66436956  0.08426062     0.71490
O2328       O  0.66722193  0.72152185  0.42667010    -0.60180
O2329       O  0.67094093  0.75884733  0.46630995    -0.52160
C2330       C  0.65925378  0.73984989  0.43739666     0.73300
O2331       O  0.71620903  0.67253592  0.42702007    -0.71580
O2332       O  0.75344350  0.67595633  0.46623828    -0.50260
C2333       C  0.73423825  0.66423200  0.43761017     0.74680
O2334       O  0.66667255  0.72125429  0.09455490    -0.66910
O2335       O  0.67057679  0.75877430  0.05557027    -0.54110
C2336       C  0.65874816  0.73963120  0.08413574     0.73060
Zr2337     Zr  0.70224991  0.70777300  0.07210590     2.77540
O2338       O  0.65654513  0.66217622  0.06722684    -0.97660
O2339       O  0.70090266  0.70669472  0.14731537    -0.78480
Zr2340     Zr  0.70291718  0.70825078  0.44907558     2.70070
O2341       O  0.65735951  0.66240314  0.45110943    -0.79730
O2342       O  0.70372998  0.70945571  0.37381309    -0.98810
Zr2343     Zr  0.71209540  0.77291066  0.01127986     2.21500
Zr2344     Zr  0.76771189  0.71747643  0.01109162     2.11130
O2345       O  0.71602649  0.69342028  0.01057626    -2.47500
O2346       O  0.68773969  0.72129721  0.01061895    -0.79520
O2347       O  0.75360782  0.73085942  0.07354429    -0.71710
O2348       O  0.72611876  0.75949063  0.44880484    -2.32670
O2349       O  0.72548981  0.75905409  0.07376155    -2.28880
O2350       O  0.75429012  0.73135355  0.44865974    -0.73470
H2351       H  0.81258126  0.77741622  0.01196065     0.78520
H2352       H  0.71994429  0.76576508  0.42483286     0.79610
H2353       H  0.70776747  0.67260374  0.01036484     0.81840
H2354       H  0.71914758  0.76526107  0.09772338     0.79440
H2355       H  0.75865314  0.77373552  0.36631799     0.42480
H2356       H  0.72337693  0.71330219  0.36624955     0.41450
H2357       H  0.64693149  0.66423279  0.47526782     0.41130
H2358       H  0.66149517  0.64861154  0.05330452     0.39060
H2359       H  0.72129204  0.71969907  0.15575022     0.42190
H2360       H  0.75754042  0.77937919  0.15657673     0.36980
H2361       H  0.82010622  0.83863237  0.04751588     0.43090
H2362       H  0.83644269  0.82360569  0.46902345     0.39510
H2363       H  0.65207181  0.65510220  0.09606603     0.44430
H2364       H  0.79067184  0.80251394  0.15648544     0.43150
H2365       H  0.82971895  0.83344639  0.42689299     0.43290
H2366       H  0.69061233  0.68909276  0.36526222     0.43640
O2367       O  0.53939301  0.81983571  0.42753299    -0.75230
O2368       O  0.57324258  0.81628512  0.46654367    -0.54130
C2369       C  0.56575509  0.82807360  0.43808823     0.78500
O2370       O  0.94107467  0.76959455  0.09518045    -0.59830
O2371       O  0.90749001  0.73229872  0.05560724    -0.52860
C2372       C  0.91477265  0.75128623  0.08460696     0.70520
O2373       O  0.53937227  0.82070117  0.09360686    -0.74390
O2374       O  0.57323170  0.81671258  0.05504231    -0.54950
C2375       C  0.56574710  0.82874275  0.08325979     0.76520
O2376       O  0.94112176  0.76897635  0.42558715    -0.59530
O2377       O  0.90755125  0.73188981  0.46526682    -0.52650
C2378       C  0.91481225  0.75079585  0.43628933     0.73110
Zr2379     Zr  0.99029578  0.78335167  0.44877314     2.54710
O2380       O  0.98909761  0.82846562  0.45226725    -0.80090
O2381       O  0.99039857  0.78319211  0.37347106    -0.93510
Zr2382     Zr  0.99028004  0.78439329  0.07174716     2.64680
O2383       O  0.98944331  0.82961452  0.06604809    -0.98470
O2384       O  0.99080484  0.78663441  0.14693885    -0.80530
O2385       O  0.51841451  0.79861187  0.01029157    -0.83890
O2386       O  0.96217462  0.77014499  0.01021430    -2.18590
O2387       O  0.94309936  0.67252818  0.42899161    -0.67280
O2388       O  0.90869753  0.67608740  0.46667412    -0.51840
C2389       C  0.91666497  0.66402902  0.43904119     0.71490
O2390       O  0.53969670  0.72315722  0.09547247    -0.60180
O2391       O  0.57337539  0.76056280  0.05634861    -0.52160
C2392       C  0.56596770  0.74135426  0.08494794     0.73300
O2393       O  0.94223946  0.67403153  0.09472977    -0.71580
O2394       O  0.90813885  0.67696763  0.05559542    -0.50260
C2395       C  0.91584922  0.66540454  0.08412020     0.74680
O2396       O  0.54013379  0.72275139  0.42757975    -0.66910
O2397       O  0.57369381  0.76047225  0.46652465    -0.54110
C2398       C  0.56636617  0.74116474  0.43796662     0.73060
Zr2399     Zr  0.99142146  0.70943715  0.45028910     2.77540
O2400       O  0.99317221  0.66461461  0.45387536    -0.97660
O2401       O  0.99080316  0.70912765  0.37503974    -0.78480
Zr2402     Zr  0.99099641  0.71030484  0.07325676     2.70070
O2403       O  0.99107711  0.66458791  0.07199937    -0.79730
O2404       O  0.99138651  0.71240126  0.14848022    -0.98810
Zr2405     Zr  0.54630375  0.77482264  0.01111590     2.21500
Zr2406     Zr  0.93503874  0.71838386  0.01073475     2.11130
O2407       O  0.96328247  0.69498837  0.01162760    -2.47500
O2408       O  0.51930365  0.72325825  0.01191950    -0.79520
O2409       O  0.96256333  0.73192199  0.44844352    -0.71710
O2410       O  0.51877529  0.76158374  0.07346349    -2.32670
O2411       O  0.51896054  0.76068857  0.44863208    -2.28880
O2412       O  0.96233593  0.73296730  0.07327202    -0.73470
H2413       H  0.94941343  0.77817220  0.00992702     0.78520
H2414       H  0.53123506  0.76805152  0.09746005     0.79610
H2415       H  0.95105028  0.67413635  0.01191162     0.81840
H2416       H  0.53147305  0.76688140  0.42468814     0.79440
H2417       H  0.49995332  0.77522234  0.15559634     0.42480
H2418       H  0.97497134  0.71537836  0.15574271     0.41450
H2419       H  0.50315967  0.66618007  0.04775071     0.41130
H2420       H  0.97586578  0.65118333  0.47017616     0.39060
H2421       H  0.97952553  0.71866749  0.36761040     0.42190
H2422       H  0.50664283  0.78008227  0.36565095     0.36980
H2423       H  0.50277649  0.83965264  0.47477103     0.43090
H2424       H  0.97047345  0.82407510  0.05327181     0.39510
H2425       H  0.98874486  0.65672533  0.42538813     0.44430
H2426       H  0.99704112  0.80355310  0.36565675     0.43150
H2427       H  0.98761122  0.83471486  0.09492681     0.43290
H2428       H  0.98507858  0.69231472  0.15739694     0.43640
O2429       O  0.76679672  0.94762948  0.42712252    -0.75230
O2430       O  0.72925800  0.91397160  0.46609514    -0.54190
C2431       C  0.74865263  0.92132738  0.43778710     0.78500
O2432       O  0.81339388  0.54605024  0.09561980    -0.59830
O2433       O  0.81015604  0.57966668  0.05572992    -0.52860
C2434       C  0.82150729  0.57234701  0.08503898     0.70520
O2435       O  0.76752129  0.94826262  0.09291815    -0.74390
O2436       O  0.72972061  0.91431264  0.05447849    -0.54950
C2437       C  0.74928453  0.92190043  0.08255191     0.76520
O2438       O  0.81326237  0.54556810  0.42470200    -0.59530
O2439       O  0.81010946  0.57928502  0.46485949    -0.52650
C2440       C  0.82151844  0.57188236  0.43558054     0.73110
Zr2441     Zr  0.77893925  0.99662102  0.44837652     2.54710
O2442       O  0.82542358  0.99827599  0.45221415    -0.80090
O2443       O  0.77899664  0.49625162  0.37306724    -0.93510
Zr2444     Zr  0.77968174  0.99700774  0.07130370     2.64680
O2445       O  0.82611935  0.99863839  0.06569841    -0.98470
O2446       O  0.78109640  0.49615922  0.14648631    -0.80530
O2447       O  0.76598953  0.96867990  0.00990667    -0.83890
O2448       O  0.79380644  0.52496301  0.00978908    -2.18590
O2449       O  0.71774358  0.54465137  0.42576966    -0.67280
O2450       O  0.75444212  0.57872862  0.46556366    -0.51840
C2451       C  0.73553510  0.57105595  0.43650326     0.71490
O2452       O  0.66904994  0.94718056  0.09464911    -0.60180
O2453       O  0.67300019  0.91347535  0.05556210    -0.52160
C2454       C  0.66108471  0.92086579  0.08414633     0.73300
O2455       O  0.71801831  0.54493076  0.09556322    -0.71580
O2456       O  0.75456493  0.57891311  0.05561555    -0.50260
C2457       C  0.73568399  0.57129562  0.08475042     0.74680
O2458       O  0.66864471  0.94686778  0.42738534    -0.66910
O2459       O  0.67271634  0.91322425  0.46609304    -0.54110
C2460       C  0.66073128  0.92057510  0.43771390     0.73060
Zr2461     Zr  0.70410383  0.99591488  0.44951474     2.77540
O2462       O  0.65832146  0.99564554  0.45478266    -0.97660
O2463       O  0.70233443  0.99506547  0.37431751    -0.78480
Zr2464     Zr  0.70479700  0.99612218  0.07262657     2.70070
O2465       O  0.65924880  0.99645244  0.07044305    -0.79730
O2466       O  0.70523189  0.99512149  0.14788551    -0.98810
Zr2467     Zr  0.71438846  0.94084909  0.01050419     2.21500
Zr2468     Zr  0.76912623  0.55203056  0.01042658     2.11130
O2469       O  0.71749733  0.52403100  0.01106001    -2.47500
O2470       O  0.68985656  0.96793598  0.01107310    -0.79520
O2471       O  0.75537158  0.52446380  0.44808975    -0.71710
O2472       O  0.72841291  0.96842489  0.07290771    -2.32670
O2473       O  0.72767295  0.96813413  0.44800050    -2.28880
O2474       O  0.75607456  0.52478908  0.07285090    -0.73470
H2475       H  0.81457239  0.53774494  0.00955064     0.78520
H2476       H  0.72240232  0.95596784  0.09687134     0.79610
H2477       H  0.70905022  0.53643099  0.01128024     0.81840
H2478       H  0.72143211  0.95556777  0.42406155     0.79440
H2479       H  0.76053160  0.98709824  0.15508402     0.42480
H2480       H  0.72477601  0.51095977  0.15574921     0.41450
H2481       H  0.64867625  0.98386336  0.04663026     0.41130
H2482       H  0.66345993  0.51474023  0.46688516     0.39060
H2483       H  0.72246819  0.50130405  0.36569108     0.42190
H2484       H  0.75999929  0.97950875  0.36518229     0.36980
H2485       H  0.82302523  0.98481820  0.47493331     0.43090
H2486       H  0.83953012  0.51793438  0.05382230     0.39510
H2487       H  0.65302207  0.99678139  0.42579918     0.44430
H2488       H  0.79332032  0.99032324  0.36542676     0.43150
H2489       H  0.83267682  0.99994734  0.09465751     0.43290
H2490       H  0.69192879  0.00213331  0.15651648     0.43640
C2491       C  0.72366444  0.61296259  0.21695916    -0.06060
C2492       C  0.74513343  0.63727382  0.23806856    -0.17190
C2493       C  0.74676382  0.63794316  0.28108577     0.11140
C2494       C  0.72616061  0.61390023  0.30420025    -0.05980
C2495       C  0.70448714  0.58956732  0.28319156    -0.17220
C2496       C  0.70280028  0.58896596  0.23991017     0.11170
S2497       S  0.77648360  0.66972259  0.30428507    -0.32180
S2498       S  0.67303844  0.55749946  0.21607313    -0.32190
H2499       H  0.67073880  0.57221531  0.18152621     0.29180
H2500       H  0.78166869  0.65458716  0.33562880     0.29170
H2501       H  0.76148100  0.65560948  0.22075841     0.19770
H2502       H  0.68842343  0.57116569  0.30067311     0.19770
C2503       C  0.87080095  0.75890720  0.30445199    -0.06060
C2504       C  0.87749494  0.78453367  0.28339482    -0.17190
C2505       C  0.87826803  0.78552678  0.24005097     0.11140
C2506       C  0.87242880  0.76040790  0.21742811    -0.05980
C2507       C  0.86533285  0.73477083  0.23859586    -0.17220
C2508       C  0.86376058  0.73358942  0.28166181     0.11170
S2509       S  0.88675272  0.81929576  0.21559623    -0.32180
S2510       S  0.85142501  0.69882319  0.30554872    -0.32190
H2511       H  0.83899700  0.70355037  0.34091059     0.29180
H2512       H  0.89886418  0.81513643  0.17939177     0.29170
H2513       H  0.88239075  0.80388682  0.30082344     0.19770
H2514       H  0.86005283  0.71524577  0.22130310     0.19770
C2515       C  0.87744377  0.61424375  0.30473019    -0.06060
C2516       C  0.86895281  0.58820003  0.28318423    -0.17190
C2517       C  0.86923859  0.58733144  0.23982288     0.11140
C2518       C  0.87698222  0.61287393  0.21697909    -0.05980
C2519       C  0.88616068  0.63894040  0.23860469    -0.17220
C2520       C  0.88680923  0.64005396  0.28165063     0.11170
S2521       S  0.86084091  0.55332133  0.21596077    -0.32180
S2522       S  0.89895817  0.67525475  0.30437509    -0.32190
H2523       H  0.87763869  0.66496132  0.33546748     0.29180
H2524       H  0.87903318  0.56582395  0.18152386     0.29170
H2525       H  0.86258802  0.56842909  0.30030521     0.19770
H2526       H  0.89201353  0.65872163  0.22180557     0.19770
C2527       C  0.60922603  0.73324894  0.21742972    -0.06060
C2528       C  0.62962451  0.75827735  0.23843987    -0.17190
C2529       C  0.62993932  0.75969975  0.28158301     0.11140
C2530       C  0.60980416  0.73529203  0.30447649    -0.05980
C2531       C  0.58930396  0.71026080  0.28350850    -0.17220
C2532       C  0.58893726  0.70889635  0.24023550     0.11170
S2533       S  0.65606478  0.79350381  0.30544541    -0.32180
S2534       S  0.56249663  0.67542877  0.21606315    -0.32190
H2535       H  0.57894774  0.67809187  0.18060721     0.29180
H2536       H  0.63880876  0.79146462  0.33963728     0.29170
H2537       H  0.64499582  0.77712792  0.22099220     0.19770
H2538       H  0.57383989  0.69150721  0.30101128     0.19770
C2539       C  0.60876500  0.87827376  0.30470246    -0.06060
C2540       C  0.60435815  0.85329441  0.28356215    -0.17190
C2541       C  0.60548138  0.85252557  0.24044493     0.11140
C2542       C  0.61035201  0.87709631  0.21726643    -0.05980
C2543       C  0.61478362  0.90212126  0.23833868    -0.17220
C2544       C  0.61384765  0.90294056  0.28159407     0.11170
S2545       S  0.60216313  0.82005769  0.21732432    -0.32180
S2546       S  0.61832605  0.93573909  0.30508692    -0.32190
H2547       H  0.60012240  0.92197309  0.33908872     0.29180
H2548       H  0.62200490  0.83443906  0.18514446     0.29170
H2549       H  0.60109995  0.83449041  0.30092284     0.19770
H2550       H  0.61839433  0.92100636  0.22088522     0.19770
C2551       C  0.75215821  0.87743237  0.21698452    -0.06060
C2552       C  0.76988362  0.86893795  0.23773878    -0.17190
C2553       C  0.77055835  0.86802834  0.28101493     0.11140
C2554       C  0.75328526  0.87618738  0.30447341    -0.05980
C2555       C  0.73545452  0.88454135  0.28368458    -0.17220
C2556       C  0.73450569  0.88512214  0.24044336     0.11170
S2557       S  0.79475166  0.85783750  0.30529568    -0.32180
S2558       S  0.70906598  0.89371065  0.21618264    -0.32190
H2559       H  0.70083308  0.90276882  0.25209538     0.29180
H2560       H  0.80046522  0.84617751  0.26977437     0.29170
H2561       H  0.78363926  0.86338466  0.21983433     0.19770
H2562       H  0.72151491  0.88985554  0.30156881     0.19770
C2563       C  0.75186158  0.87701373  0.67098572     0.03200
C2564       C  0.74921617  0.85278616  0.64952331    -0.12950
C2565       C  0.74692117  0.85124063  0.60631709     0.00700
C2566       C  0.74632561  0.87364456  0.58446138    -0.11480
C2567       C  0.75034676  0.89854964  0.60528269     0.03190
C2568       C  0.75415109  0.90054922  0.64829839    -0.10900
H2569       H  0.74818201  0.83473227  0.66645548     0.08780
H2570       H  0.74382274  0.87218894  0.55114142     0.06310
H2571       H  0.75772547  0.91999891  0.66426963     0.06160
C2572       C  0.75265518  0.87579516  0.85049249     0.03200
C2573       C  0.75379751  0.89921396  0.87250378    -0.12950
C2574       C  0.74979257  0.89773195  0.91550465     0.00700
C2575       C  0.74595042  0.87317771  0.93693903    -0.11480
C2576       C  0.74639600  0.85042715  0.91566757     0.03190
C2577       C  0.74868318  0.85134933  0.87248759    -0.10900
H2578       H  0.75673645  0.91819321  0.85595460     0.08780
H2579       H  0.74352943  0.87218460  0.97027182     0.06310
H2580       H  0.74667716  0.83264614  0.85610264     0.06160
C2581       C  0.60957239  0.87803435  0.85058777     0.03200
C2582       C  0.63385557  0.89920431  0.87219848    -0.12950
C2583       C  0.63595577  0.89731696  0.91519628     0.00700
C2584       C  0.61394375  0.87359451  0.93655502    -0.11480
C2585       C  0.58916876  0.85269070  0.91552452     0.03190
C2586       C  0.58703765  0.85514256  0.87264749    -0.10900
H2587       H  0.65151164  0.91677721  0.85544079     0.08780
H2588       H  0.61557440  0.87200059  0.96973785     0.06310
H2589       H  0.56819923  0.83873036  0.85618320     0.06160
C2590       C  0.61072251  0.87715891  0.67137475     0.03200
C2591       C  0.58752473  0.85514084  0.64901859    -0.12950
C2592       C  0.58924926  0.85323422  0.60596023     0.00700
C2593       C  0.61399521  0.87418756  0.58498605    -0.11480
C2594       C  0.63630958  0.89757784  0.60661224     0.03190
C2595       C  0.63460761  0.89890976  0.64982158    -0.10900
H2596       H  0.56862736  0.83878637  0.66536760     0.08780
H2597       H  0.61537249  0.87289664  0.55168140     0.06310
H2598       H  0.65231068  0.91637005  0.66677190     0.06160
C2599       C  0.60929188  0.73396738  0.67184449     0.03200
C2600       C  0.58732123  0.73570307  0.65043431    -0.12950
C2601       C  0.58919980  0.73983879  0.60742735     0.00700
C2602       C  0.61311239  0.74197461  0.58594738    -0.11480
C2603       C  0.63442102  0.73879856  0.60693085     0.03190
C2604       C  0.63250916  0.73500752  0.64992225    -0.10900
H2605       H  0.56929877  0.73477561  0.66742046     0.08780
H2606       H  0.61453946  0.74494600  0.55271155     0.06310
H2607       H  0.64939807  0.73349645  0.66650352     0.06160
C2608       C  0.61002446  0.73537546  0.85008701     0.03200
C2609       C  0.58784847  0.73642812  0.87202743    -0.12950
C2610       C  0.58962891  0.73992845  0.91513852     0.00700
C2611       C  0.61352294  0.74188660  0.93627487    -0.11480
C2612       C  0.63493151  0.73909330  0.91479450     0.03190
C2613       C  0.63314663  0.73593659  0.87163802    -0.10900
H2614       H  0.56980998  0.73566112  0.85537431     0.08780
H2615       H  0.61486467  0.74443427  0.96960336     0.06310
H2616       H  0.65011716  0.73474965  0.85468665     0.06160
C2617       C  0.87550218  0.61377596  0.85072779     0.03200
C2618       C  0.89820474  0.63505390  0.87455807    -0.12950
C2619       C  0.89398503  0.63888808  0.91637455     0.00700
C2620       C  0.86804224  0.61894890  0.93579238    -0.11480
C2621       C  0.84667752  0.59510642  0.91366927     0.03190
C2622       C  0.85018102  0.59299615  0.87093692    -0.10900
H2623       H  0.91858534  0.64994241  0.85983685     0.08780
H2624       H  0.86514169  0.62117809  0.96851329     0.06310
H2625       H  0.83284778  0.57565090  0.85334345     0.06160
C2626       C  0.87461004  0.61351277  0.67113159     0.03200
C2627       C  0.89652825  0.63665965  0.64861603    -0.12950
C2628       C  0.89288094  0.64038435  0.60659887     0.00700
C2629       C  0.86755314  0.61992680  0.58628497    -0.11480
C2630       C  0.84626378  0.59563964  0.60761948     0.03190
C2631       C  0.84950218  0.59299071  0.65021536    -0.10900
H2632       H  0.91616944  0.65244157  0.66423344     0.08780
H2633       H  0.86505931  0.62218220  0.55347818     0.06310
H2634       H  0.83213763  0.57526757  0.66710986     0.06160
C2635       C  0.87181481  0.75927346  0.67187333     0.03200
C2636       C  0.89356968  0.75723816  0.65022044    -0.12950
C2637       C  0.89131628  0.75244794  0.60735872     0.00700
C2638       C  0.86679093  0.74927663  0.58635247    -0.11480
C2639       C  0.84540420  0.75234159  0.60760727     0.03190
C2640       C  0.84813817  0.75748055  0.65039451    -0.10900
H2641       H  0.91192618  0.75876471  0.66694161     0.08780
H2642       H  0.86495304  0.74564523  0.55322897     0.06310
H2643       H  0.83135819  0.75906561  0.66726112     0.06160
C2644       C  0.87120342  0.75876683  0.85003303     0.03200
C2645       C  0.84801066  0.75756276  0.87216305    -0.12950
C2646       C  0.84561979  0.75251492  0.91491313     0.00700
C2647       C  0.86703987  0.74925586  0.93558035    -0.11480
C2648       C  0.89129979  0.75213564  0.91400379     0.03190
C2649       C  0.89315436  0.75674250  0.87111282    -0.10900
H2650       H  0.83109595  0.75912177  0.85573476     0.08780
H2651       H  0.86542846  0.74567529  0.96868701     0.06310
H2652       H  0.91117438  0.75784975  0.85389597     0.06160
C2653       C  0.72691603  0.61389603  0.84996999     0.03200
C2654       C  0.72727047  0.63669505  0.87235237    -0.12950
C2655       C  0.73264381  0.63941868  0.91498500     0.00700
C2656       C  0.73642098  0.61837997  0.93564086    -0.11480
C2657       C  0.73373763  0.59418099  0.91412431     0.03190
C2658       C  0.72904417  0.59207528  0.87123091    -0.10900
H2659       H  0.72469945  0.65309137  0.85616080     0.08780
H2660       H  0.74021565  0.62020402  0.96871476     0.06310
H2661       H  0.72820843  0.57408888  0.85419666     0.06160
C2662       C  0.72517623  0.61321203  0.67124311     0.03200
C2663       C  0.72814868  0.59183825  0.64990175    -0.12950
C2664       C  0.73366804  0.59435188  0.60721139     0.00700
C2665       C  0.73657387  0.61865186  0.58597608    -0.11480
C2666       C  0.73262014  0.63961265  0.60677770     0.03190
C2667       C  0.72681632  0.63669295  0.64930385    -0.10900
H2668       H  0.72715726  0.57377435  0.66674374     0.08780
H2669       H  0.74071883  0.62063596  0.55298675     0.06310
H2670       H  0.72442868  0.65319543  0.66568878     0.06160
O2671       O  0.76359575  0.81826112  0.59482014    -0.75230
O2672       O  0.72622485  0.81453248  0.55558061    -0.54130
C2673       C  0.74542429  0.82637997  0.58413392     0.78500
O2674       O  0.81250198  0.76893510  0.92721483    -0.59830
O2675       O  0.80930808  0.73182723  0.96644987    -0.52860
C2676       C  0.82087206  0.75093052  0.93771337     0.70520
O2677       O  0.76347420  0.81796447  0.92797648    -0.74390
O2678       O  0.72602089  0.81434316  0.96706048    -0.54950
C2679       C  0.74514476  0.82597889  0.93840233     0.76520
O2680       O  0.81206469  0.76860640  0.59606452    -0.59530
O2681       O  0.80902847  0.73168579  0.55617856    -0.52650
C2682       C  0.82051108  0.75068128  0.58519488     0.73110
Zr2683     Zr  0.77675697  0.78223116  0.57331363     2.54710
O2684       O  0.82266947  0.82767455  0.57022914    -0.80090
O2685       O  0.77675389  0.78219589  0.64862349    -0.93510
Zr2686     Zr  0.77736070  0.78273613  0.95029907     2.64680
O2687       O  0.82274900  0.82859012  0.95575144    -0.98470
O2688       O  0.77921282  0.78462183  0.87510433    -0.80530
O2689       O  0.76368798  0.79722523  0.51184547    -0.83890
O2690       O  0.79177648  0.76915383  0.51175283    -2.18590
O2691       O  0.71605808  0.67261864  0.59478462    -0.67280
O2692       O  0.75338057  0.67601700  0.55564437    -0.51840
C2693       C  0.73418156  0.66436958  0.58426062     0.71490
O2694       O  0.66722191  0.72152182  0.92667009    -0.60180
O2695       O  0.67094091  0.75884730  0.96630992    -0.52160
C2696       C  0.65925376  0.73984985  0.93739665     0.73300
O2697       O  0.71620902  0.67253590  0.92702007    -0.71580
O2698       O  0.75344349  0.67595631  0.96623828    -0.50260
C2699       C  0.73423825  0.66423198  0.93761017     0.74680
O2700       O  0.66667256  0.72125431  0.59455491    -0.66910
O2701       O  0.67057681  0.75877432  0.55557029    -0.54110
C2702       C  0.65874817  0.73963122  0.58413575     0.73060
Zr2703     Zr  0.70224992  0.70777302  0.57210591     2.77540
O2704       O  0.65654514  0.66217624  0.56722684    -0.97660
O2705       O  0.70090266  0.70669473  0.64731538    -0.78480
Zr2706     Zr  0.70291716  0.70825075  0.94907558     2.70070
O2707       O  0.65735949  0.66240311  0.95110945    -0.79730
O2708       O  0.70372995  0.70945566  0.87381308    -0.98810
Zr2709     Zr  0.71209542  0.77291068  0.51127989     2.21500
Zr2710     Zr  0.76771190  0.71747645  0.51109163     2.11130
O2711       O  0.71602651  0.69342030  0.51057627    -2.47500
O2712       O  0.68773971  0.72129723  0.51061896    -0.79520
O2713       O  0.75360783  0.73085943  0.57354431    -0.71710
O2714       O  0.72611874  0.75949060  0.94880481    -2.32670
O2715       O  0.72548983  0.75905411  0.57376158    -2.28880
O2716       O  0.75429010  0.73135352  0.94865972    -0.73470
H2717       H  0.81258128  0.77741623  0.51196066     0.78520
H2718       H  0.71994427  0.76576505  0.92483283     0.79610
H2719       H  0.70776748  0.67260376  0.51036485     0.81840
H2720       H  0.71914760  0.76526109  0.59772341     0.79440
H2721       H  0.75865312  0.77373543  0.86631797     0.42480
H2722       H  0.72337689  0.71330214  0.86624953     0.41450
H2723       H  0.64693147  0.66423277  0.97526783     0.41130
H2724       H  0.66149518  0.64861156  0.55330453     0.39060
H2725       H  0.72129204  0.71969909  0.65575024     0.42190
H2726       H  0.75754045  0.77937921  0.65657676     0.36980
H2727       H  0.82010626  0.83863237  0.54751588     0.43090
H2728       H  0.83644267  0.82360567  0.96902341     0.39510
H2729       H  0.65207182  0.65510222  0.59606603     0.44430
H2730       H  0.79067188  0.80251395  0.65648546     0.43150
H2731       H  0.82971891  0.83344638  0.92689298     0.43290
H2732       H  0.69061229  0.68909270  0.86526222     0.43640
O2733       O  0.53939301  0.81983571  0.92753300    -0.75230
O2734       O  0.57324259  0.81628511  0.96654367    -0.54130
C2735       C  0.56575510  0.82807360  0.93808824     0.78500
O2736       O  0.94107468  0.76959454  0.59518045    -0.59830
O2737       O  0.90749001  0.73229871  0.55560725    -0.52860
C2738       C  0.91477265  0.75128622  0.58460696     0.70520
O2739       O  0.53937226  0.82070117  0.59360686    -0.74390
O2740       O  0.57323169  0.81671259  0.55504231    -0.54950
C2741       C  0.56574710  0.82874275  0.58325980     0.76520
O2742       O  0.94112177  0.76897635  0.92558716    -0.59530
O2743       O  0.90755125  0.73188982  0.96526683    -0.52650
C2744       C  0.91481225  0.75079585  0.93628934     0.73110
Zr2745     Zr  0.99029578  0.78335168  0.94877314     2.54710
O2746       O  0.98909762  0.82846563  0.95226725    -0.80090
O2747       O  0.99039857  0.78319212  0.87347107    -0.93510
Zr2748     Zr  0.99028004  0.78439329  0.57174716     2.64680
O2749       O  0.98944330  0.82961451  0.56604808    -0.98470
O2750       O  0.99080485  0.78663442  0.64693884    -0.80530
O2751       O  0.51841450  0.79861187  0.51029156    -0.83890
O2752       O  0.96217462  0.77014499  0.51021430    -2.18590
O2753       O  0.94309936  0.67252819  0.92899161    -0.67280
O2754       O  0.90869752  0.67608741  0.96667411    -0.51840
C2755       C  0.91666497  0.66402903  0.93904119     0.71490
O2756       O  0.53969671  0.72315723  0.59547246    -0.60180
O2757       O  0.57337540  0.76056281  0.55634860    -0.52160
C2758       C  0.56596770  0.74135427  0.58494793     0.73300
O2759       O  0.94223946  0.67403153  0.59472976    -0.71580
O2760       O  0.90813885  0.67696762  0.55559541    -0.50260
C2761       C  0.91584922  0.66540454  0.58412019     0.74680
O2762       O  0.54013377  0.72275138  0.92757974    -0.66910
O2763       O  0.57369381  0.76047224  0.96652464    -0.54110
C2764       C  0.56636616  0.74116473  0.93796662     0.73060
Zr2765     Zr  0.99142146  0.70943716  0.95028910     2.77540
O2766       O  0.99317220  0.66461461  0.95387537    -0.97660
O2767       O  0.99080316  0.70912765  0.87503974    -0.78480
Zr2768     Zr  0.99099642  0.71030484  0.57325676     2.70070
O2769       O  0.99107711  0.66458791  0.57199937    -0.79730
O2770       O  0.99138651  0.71240126  0.64848022    -0.98810
Zr2771     Zr  0.54630375  0.77482265  0.51111590     2.21500
Zr2772     Zr  0.93503874  0.71838386  0.51073474     2.11130
O2773       O  0.96328247  0.69498837  0.51162759    -2.47500
O2774       O  0.51930366  0.72325825  0.51191950    -0.79520
O2775       O  0.96256333  0.73192199  0.94844352    -0.71710
O2776       O  0.51877529  0.76158375  0.57346349    -2.32670
O2777       O  0.51896054  0.76068857  0.94863209    -2.28880
O2778       O  0.96233593  0.73296730  0.57327201    -0.73470
H2779       H  0.94941343  0.77817220  0.50992702     0.78520
H2780       H  0.53123506  0.76805153  0.59746005     0.79610
H2781       H  0.95105029  0.67413635  0.51191162     0.81840
H2782       H  0.53147305  0.76688140  0.92468814     0.79440
H2783       H  0.49995330  0.77522233  0.65559634     0.42480
H2784       H  0.97497133  0.71537836  0.65574271     0.41450
H2785       H  0.50315968  0.66618007  0.54775071     0.41130
H2786       H  0.97586577  0.65118333  0.97017616     0.39060
H2787       H  0.97952553  0.71866749  0.86761041     0.42190
H2788       H  0.50664283  0.78008228  0.86565095     0.36980
H2789       H  0.50277650  0.83965265  0.97477104     0.43090
H2790       H  0.97047344  0.82407509  0.55327182     0.39510
H2791       H  0.98874486  0.65672533  0.92538814     0.44430
H2792       H  0.99704112  0.80355310  0.86565676     0.43150
H2793       H  0.98761123  0.83471486  0.59492680     0.43290
H2794       H  0.98507858  0.69231472  0.65739694     0.43640
O2795       O  0.76679671  0.94762947  0.92712253    -0.75230
O2796       O  0.72925799  0.91397158  0.96609515    -0.54190
C2797       C  0.74865262  0.92132736  0.93778711     0.78500
O2798       O  0.81339387  0.54605023  0.59561980    -0.59830
O2799       O  0.81015604  0.57966668  0.55572993    -0.52860
C2800       C  0.82150729  0.57234701  0.58503898     0.70520
O2801       O  0.76752124  0.94826261  0.59291818    -0.74390
O2802       O  0.72972057  0.91431263  0.55447850    -0.54950
C2803       C  0.74928448  0.92190042  0.58255194     0.76520
O2804       O  0.81326237  0.54556810  0.92470200    -0.59530
O2805       O  0.81010946  0.57928502  0.96485949    -0.52650
C2806       C  0.82151845  0.57188236  0.93558053     0.73110
Zr2807     Zr  0.77893926  0.99662102  0.94837651     2.54710
O2808       O  0.82542358  0.99827598  0.95221413    -0.80090
O2809       O  0.77899666  0.49625161  0.87306723    -0.93510
Zr2810     Zr  0.77968172  0.99700773  0.57130370     2.64680
O2811       O  0.82611932  0.99863836  0.56569843    -0.98470
O2812       O  0.78109638  0.49615923  0.64648632    -0.80530
O2813       O  0.76598952  0.96867990  0.50990667    -0.83890
O2814       O  0.79380642  0.52496301  0.50978908    -2.18590
O2815       O  0.71774358  0.54465136  0.92576965    -0.67280
O2816       O  0.75444212  0.57872861  0.96556365    -0.51840
C2817       C  0.73553511  0.57105593  0.93650326     0.71490
O2818       O  0.66904992  0.94718056  0.59464911    -0.60180
O2819       O  0.67300018  0.91347535  0.55556209    -0.52160
C2820       C  0.66108470  0.92086580  0.58414633     0.73300
O2821       O  0.71801830  0.54493077  0.59556321    -0.71580
O2822       O  0.75456492  0.57891312  0.55561555    -0.50260
C2823       C  0.73568399  0.57129563  0.58475042     0.74680
O2824       O  0.66864472  0.94686777  0.92738534    -0.66910
O2825       O  0.67271635  0.91322425  0.96609305    -0.54110
C2826       C  0.66073129  0.92057509  0.93771391     0.73060
Zr2827     Zr  0.70410383  0.99591487  0.94951474     2.77540
O2828       O  0.65832146  0.99564553  0.95478265    -0.97660
O2829       O  0.70233443  0.99506546  0.87431752    -0.78480
Zr2830     Zr  0.70479698  0.99612218  0.57262657     2.70070
O2831       O  0.65924878  0.99645245  0.57044303    -0.79730
O2832       O  0.70523187  0.99512150  0.64788550    -0.98810
Zr2833     Zr  0.71438845  0.94084909  0.51050419     2.21500
Zr2834     Zr  0.76912622  0.55203057  0.51042659     2.11130
O2835       O  0.71749732  0.52403101  0.51106001    -2.47500
O2836       O  0.68985655  0.96793599  0.51107309    -0.79520
O2837       O  0.75537159  0.52446380  0.94808975    -0.71710
O2838       O  0.72841289  0.96842489  0.57290771    -2.32670
O2839       O  0.72767295  0.96813412  0.94800050    -2.28880
O2840       O  0.75607454  0.52478908  0.57285090    -0.73470
H2841       H  0.81457237  0.53774494  0.50955065     0.78520
H2842       H  0.72240230  0.95596785  0.59687133     0.79610
H2843       H  0.70905021  0.53643100  0.51128024     0.81840
H2844       H  0.72143212  0.95556776  0.92406155     0.79440
H2845       H  0.76053158  0.98709828  0.65508403     0.42480
H2846       H  0.72477599  0.51095978  0.65574920     0.41450
H2847       H  0.64867623  0.98386336  0.54663025     0.41130
H2848       H  0.66345994  0.51474022  0.96688516     0.39060
H2849       H  0.72246822  0.50130406  0.86569109     0.42190
H2850       H  0.75999930  0.97950873  0.86518229     0.36980
H2851       H  0.82302525  0.98481821  0.97493331     0.43090
H2852       H  0.83953009  0.51793434  0.55382229     0.39510
H2853       H  0.65302208  0.99678138  0.92579918     0.44430
H2854       H  0.79332032  0.99032322  0.86542676     0.43150
H2855       H  0.83267679  0.99994732  0.59465753     0.43290
H2856       H  0.69192877  0.00213331  0.65651647     0.43640
C2857       C  0.72366444  0.61296260  0.71695916    -0.06060
C2858       C  0.74513343  0.63727382  0.73806856    -0.17190
C2859       C  0.74676381  0.63794315  0.78108577     0.11140
C2860       C  0.72616060  0.61390023  0.80420025    -0.05980
C2861       C  0.70448714  0.58956731  0.78319156    -0.17220
C2862       C  0.70280027  0.58896597  0.73991016     0.11170
S2863       S  0.77648361  0.66972258  0.80428507    -0.32180
S2864       S  0.67303843  0.55749947  0.71607313    -0.32190
H2865       H  0.67073879  0.57221533  0.68152620     0.29180
H2866       H  0.78166869  0.65458714  0.83562881     0.29170
H2867       H  0.76148100  0.65560948  0.72075842     0.19770
H2868       H  0.68842342  0.57116568  0.80067310     0.19770
C2869       C  0.87080096  0.75890721  0.80445200    -0.06060
C2870       C  0.87749495  0.78453368  0.78339483    -0.17190
C2871       C  0.87826804  0.78552678  0.74005098     0.11140
C2872       C  0.87242881  0.76040790  0.71742812    -0.05980
C2873       C  0.86533286  0.73477083  0.73859587    -0.17220
C2874       C  0.86376059  0.73358942  0.78166182     0.11170
S2875       S  0.88675272  0.81929575  0.71559623    -0.32180
S2876       S  0.85142502  0.69882320  0.80554875    -0.32190
H2877       H  0.83899700  0.70355038  0.84091061     0.29180
H2878       H  0.89886418  0.81513642  0.67939177     0.29170
H2879       H  0.88239076  0.80388682  0.80082344     0.19770
H2880       H  0.86005284  0.71524577  0.72130312     0.19770
C2881       C  0.87744378  0.61424375  0.80473019    -0.06060
C2882       C  0.86895281  0.58820003  0.78318422    -0.17190
C2883       C  0.86923860  0.58733143  0.73982288     0.11140
C2884       C  0.87698222  0.61287393  0.71697908    -0.05980
C2885       C  0.88616069  0.63894039  0.73860468    -0.17220
C2886       C  0.88680923  0.64005396  0.78165061     0.11170
S2887       S  0.86084092  0.55332133  0.71596077    -0.32180
S2888       S  0.89895817  0.67525475  0.80437507    -0.32190
H2889       H  0.87763869  0.66496133  0.83546746     0.29180
H2890       H  0.87903318  0.56582394  0.68152385     0.29170
H2891       H  0.86258802  0.56842909  0.80030520     0.19770
H2892       H  0.89201353  0.65872163  0.72180556     0.19770
C2893       C  0.60922602  0.73324894  0.71742972    -0.06060
C2894       C  0.62962451  0.75827736  0.73843988    -0.17190
C2895       C  0.62993931  0.75969975  0.78158301     0.11140
C2896       C  0.60980415  0.73529202  0.80447648    -0.05980
C2897       C  0.58930394  0.71026080  0.78350849    -0.17220
C2898       C  0.58893725  0.70889635  0.74023548     0.11170
S2899       S  0.65606477  0.79350379  0.80544542    -0.32180
S2900       S  0.56249662  0.67542878  0.71606311    -0.32190
H2901       H  0.57894774  0.67809188  0.68060719     0.29180
H2902       H  0.63880876  0.79146461  0.83963730     0.29170
H2903       H  0.64499582  0.77712792  0.72099221     0.19770
H2904       H  0.57383987  0.69150720  0.80101126     0.19770
C2905       C  0.60876501  0.87827376  0.80470246    -0.06060
C2906       C  0.60435815  0.85329441  0.78356215    -0.17190
C2907       C  0.60548138  0.85252558  0.74044493     0.11140
C2908       C  0.61035201  0.87709631  0.71726644    -0.05980
C2909       C  0.61478361  0.90212126  0.73833869    -0.17220
C2910       C  0.61384764  0.90294056  0.78159408     0.11170
S2911       S  0.60216313  0.82005770  0.71732431    -0.32180
S2912       S  0.61832604  0.93573909  0.80508694    -0.32190
H2913       H  0.60012240  0.92197309  0.83908874     0.29180
H2914       H  0.62200491  0.83443907  0.68514445     0.29170
H2915       H  0.60109995  0.83449041  0.80092284     0.19770
H2916       H  0.61839432  0.92100636  0.72088523     0.19770
C2917       C  0.75215825  0.87743240  0.71698454    -0.06060
C2918       C  0.76988381  0.86893817  0.73773880    -0.17190
C2919       C  0.77055856  0.86802858  0.78101495     0.11140
C2920       C  0.75328534  0.87618745  0.80447342    -0.05980
C2921       C  0.73545445  0.88454124  0.78368460    -0.17220
C2922       C  0.73450560  0.88512201  0.74044337     0.11170
S2923       S  0.79475206  0.85783800  0.80529574    -0.32180
S2924       S  0.70906573  0.89371027  0.71618264    -0.32190
H2925       H  0.70083260  0.90276820  0.75209539     0.29180
H2926       H  0.80046590  0.84617827  0.76977440     0.29170
H2927       H  0.78363953  0.86338500  0.71983433     0.19770
H2928       H  0.72151476  0.88985531  0.80156883     0.19770
loop_ 
_geom_bond_atom_site_label_1 
_geom_bond_atom_site_label_2 
_geom_bond_distance 
_geom_bond_site_symmetry_2 
_ccdc_geom_bond_type 
C1            C2   1.406       .  A
C1            C6   1.405       .  A
C1          C355   1.488       .  S
C2            C3   1.402       .  A
C2            H7   1.084       .  S
C3            C4   1.401       .  A
C3          C111   1.469       .  S
C4            C5   1.402       .  A
C4            H8   1.084       .  S
C5            C6   1.403       .  A
C5          C241   1.470       .  S
C6            H9   1.083       .  S
C10          C11   1.408       .  A
C10          C15   1.404       .  A
C10         C358   1.489       .  S
C11          C12   1.403       .  A
C11          H16   1.084       .  S
C12          C13   1.402       .  A
C12         C235   1.473       .  S
C13          C14   1.401       .  A
C13          H17   1.084       .  S
C14          C15   1.401       .  A
C14         C117   1.468       .  S
C15          H18   1.083       .  S
C19          C20   1.404       .  A
C19          C24   1.405       .  A
C19         C343   1.485       .  S
C20          C21   1.403       .  A
C20          H25   1.084       .  S
C21          C22   1.403       .  A
C21         C264   1.472       .  S
C22          C23   1.404       .  A
C22          H26   1.084       .  S
C23          C24   1.404       .  A
C23         C173   1.474       .  S
C24          H27   1.084       .  S
C28          C29   1.404       .  A
C28          C33   1.405       .  A
C28         C346   1.485       .  S
C29          C30   1.402       .  A
C29          H34   1.084       .  S
C30          C31   1.404       .  A
C30         C179   1.473       .  S
C31          C32   1.403       .  A
C31          H35   1.084       .  S
C32          C33   1.404       .  A
C32         C258   1.474       .  S
C33          H36   1.084       .  S
C37          C38   1.402       .  A
C37          C42   1.401       .  A
C37         C331   1.475       .  S
C38          C39   1.405       .  A
C38          H43   1.084       .  S
C39          C40   1.403       .  A
C39         C196   1.472       .  S
C40          C41   1.403       .  A
C40          H44   1.084       .  S
C41          C42   1.402       .  A
C41         C140   1.470       .  S
C42          H45   1.084       .  S
C46          C47   1.401       .  A
C46          C51   1.402       .  A
C46         C334   1.475       .  S
C47          C48   1.403       .  A
C47          H52   1.084       .  S
C48          C49   1.402       .  A
C48         C202   1.470       .  S
C49          C50   1.403       .  A
C49          H53   1.084       .  S
C50          C51   1.403       .  A
C50         C134   1.470       .  S
C51          H54   1.084       .  S
C55          C56   1.402       .  A
C55          C60   1.407       .  A
C55         C319   1.491       .  S
C56          C57   1.402       .  A
C56          H61   1.083       .  S
C57          C58   1.401       .  A
C57         C193   1.472       .  S
C58          C59   1.404       .  A
C58          H62   1.084       .  S
C59          C60   1.406       .  A
C59         C244   1.473       .  S
C60          H63   1.084       .  S
C64          C65   1.405       .  A
C64          C69   1.406       .  A
C64         C322   1.491       .  S
C65          C66   1.402       .  A
C65          H70   1.084       .  S
C66          C67   1.402       .  A
C66         C199   1.474       .  S
C67          C68   1.403       .  A
C67          H71   1.084       .  S
C68          C69   1.405       .  A
C68         C238   1.474       .  S
C69          H72   1.083       .  S
C73          C74   1.402       .  A
C73          C78   1.401       .  A
C73         C310   1.474       .  S
C74          C75   1.403       .  A
C74          H79   1.084       .  S
C75          C76   1.406       .  A
C75         C176   1.476       .  S
C76          C77   1.406       .  A
C76          H80   1.084       .  S
C77          C78   1.404       .  A
C77         C120   1.474       .  S
C78          H81   1.084       .  S
C82          C83   1.399       .  A
C82          C87   1.403       .  A
C82         C307   1.475       .  S
C83          C84   1.403       .  A
C83          H88   1.084       .  S
C84          C85   1.406       .  A
C84         C114   1.474       .  S
C85          C86   1.406       .  A
C85          H89   1.084       .  S
C86          C87   1.404       .  A
C86         C182   1.477       .  S
C87          H90   1.084       .  S
C91          C92   1.402       .  A
C91          C96   1.403       .  A
C91         C298   1.481       .  S
C92          C93   1.401       .  A
C92          H97   1.084       .  S
C93          C94   1.403       .  A
C93         C137   1.472       .  S
C94          C95   1.405       .  A
C94          H98   1.084       .  S
C95          C96   1.404       .  A
C95         C255   1.473       .  S
C96          H99   1.084       .  S
C100        C101   1.403       .  A
C100        C105   1.402       .  A
C100        C295   1.481       .  S
C101        C102   1.404       .  A
C101        H106   1.084       .  S
C102        C103   1.404       .  A
C102        C261   1.473       .  S
C103        C104   1.403       .  A
C103        H107   1.084       .  S
C104        C105   1.401       .  A
C104        C131   1.472       .  S
C105        H108   1.084       .  S
O109       Zr121   2.445       .  S
O109        C111   1.288       .  A
O110       Zr147   2.417       .  S
O110        C111   1.285       .  A
O112       Zr124   2.441       .  S
O112        C114   1.288       .  A
O113       Zr514   2.424       .  S
O113        C114   1.286       .  A
O115       Zr124   2.443       .  S
O115        C117   1.288       .  A
O116       Zr513   2.416       .  S
O116        C117   1.284       .  A
O118       Zr121   2.442       .  S
O118        C120   1.288       .  A
O119       Zr148   2.424       .  S
O119        C120   1.286       .  A
Zr121       O122   2.434       .  S
Zr121       O123   2.436       .  S
Zr121       O127   2.375       .  S
Zr121       O128   2.373       .  S
Zr121       O151   2.371       .  S
Zr121       O153   2.367       .  S
O122        H165   0.990       .  S
O123        H164   0.990       .  S
O123        H168   0.990       .  S
Zr124       O125   2.435       .  S
Zr124       O126   2.435       .  S
Zr124       O152   2.366       .  S
Zr124       O154   2.372       .  S
Zr124       O494   2.372       .  S
Zr124       O493   2.374       .  S
O125        H166   0.990       .  S
O125        H169   0.990       .  S
O126        H159   0.990       .  S
O127       Zr147   2.380       .  S
O127       Zr490   2.374   1_554  S
O128       Zr148   2.383       .  S
O128       Zr490   2.372   1_554  S
O128        H155   0.966       .  S
O129       Zr141   2.440       .  S
O129        C131   1.288       .  A
O130       Zr148   2.420       .  S
O130        C131   1.286       .  A
O132       Zr144   2.445       .  S
O132        C134   1.289       .  A
O133       Zr513   2.416       .  S
O133        C134   1.285       .  A
O135       Zr144   2.439       .  S
O135        C137   1.288       .  A
O136       Zr514   2.422       .  S
O136        C137   1.286       .  A
O138       Zr141   2.444       .  S
O138        C140   1.289       .  A
O139       Zr147   2.416       .  S
O139        C140   1.285       .  A
Zr141       O142   2.435       .  S
Zr141       O143   2.434       .  S
Zr141       O149   2.372       .  S
Zr141       O150   2.374       .  S
Zr141       O153   2.367       .  S
Zr141       O151   2.372       .  S
O142        H162   0.990       .  S
O142        H167   0.990       .  S
O143        H163   0.990       .  S
Zr144       O145   2.434       .  S
Zr144       O146   2.435       .  S
Zr144       O154   2.372       .  S
Zr144       O152   2.364       .  S
Zr144       O516   2.376       .  S
Zr144       O515   2.373       .  S
O145        H161   0.990       .  S
O146        H160   0.990       .  S
O146        H170   0.990       .  S
Zr147       O482   2.416   1_554  S
Zr147       O499   2.416   1_554  S
Zr147       O150   2.379       .  S
Zr147       O153   2.382       .  S
Zr147       O518   2.381   1_554  S
Zr148       O479   2.424   1_554  S
Zr148       O502   2.422   1_554  S
Zr148       O149   2.385       .  S
Zr148       O151   2.382       .  S
Zr148       O520   2.382   1_554  S
O149       Zr510   2.373   1_554  S
O149        H157   0.966       .  S
O150       Zr510   2.376   1_554  S
O152       Zr513   2.381       .  S
O152        H156   0.966       .  S
O153        H158   0.966       .  S
O154       Zr514   2.382       .  S
O171      Zr1647   2.450   1_455  S
O171        C173   1.290       .  A
O172       Zr575   2.419       .  S
O172        C173   1.286       .  A
O174       Zr186   2.447       .  S
O174        C176   1.289       .  A
O175       Zr210   2.424       .  S
O175        C176   1.286       .  A
O177      Zr1650   2.452   1_455  S
O177        C179   1.290       .  A
O178       Zr209   2.416       .  S
O178        C179   1.285       .  A
O180       Zr183   2.449       .  S
O180        C182   1.290       .  A
O181       Zr576   2.425       .  S
O181        C182   1.287       .  A
Zr183      O1635   2.450       .  S
Zr183       O184   2.434       .  S
Zr183       O185   2.436       .  S
Zr183       O213   2.372       .  S
Zr183      O2019   2.376       .  S
Zr183       O556   2.373       .  S
Zr183      O1679   2.370       .  S
O184       H1691   0.990       .  S
O185        H230   0.990       .  S
O185       H1690   0.990       .  S
Zr186      O1641   2.452       .  S
Zr186       O187   2.435       .  S
Zr186       O188   2.434       .  S
Zr186       O190   2.375       .  S
Zr186       O216   2.373       .  S
Zr186      O1653   2.374       .  S
Zr186      O1678   2.369       .  S
O187        H228   0.990       .  S
O187        H231   0.990       .  S
O188       H1685   0.990       .  S
O189       Zr209   2.383       .  S
O189      Zr2013   2.376   1_454  S
O189      Zr1650   2.374   1_455  S
O190       Zr210   2.386       .  S
O190       Zr549   2.373   1_554  S
O190        H217   0.966       .  S
O191       Zr203   2.428       .  S
O191        C193   1.286       .  A
O192       Zr576   2.428       .  S
O192        C193   1.287       .  A
O194      Zr1670   2.436   1_455  S
O194        C196   1.287       .  A
O195       Zr209   2.428       .  S
O195        C196   1.287       .  A
O197       Zr206   2.437       .  S
O197        C199   1.287       .  A
O198       Zr210   2.423       .  S
O198        C199   1.286       .  A
O200      Zr1667   2.434   1_455  S
O200        C202   1.286       .  A
O201       Zr575   2.426       .  S
O201        C202   1.287       .  A
Zr203      O1664   2.434       .  S
Zr203       O204   2.435       .  S
Zr203       O205   2.434       .  S
Zr203       O213   2.372       .  S
Zr203       O577   2.371       .  S
Zr203      O2042   2.372       .  S
Zr203      O1679   2.365       .  S
O204        H224   0.990       .  S
O204        H229   0.990       .  S
O205        H225   0.990       .  S
Zr206      O1658   2.436       .  S
Zr206       O207   2.434       .  S
Zr206       O208   2.435       .  S
Zr206       O211   2.369       .  S
Zr206       O216   2.369       .  S
Zr206      O1676   2.376       .  S
Zr206      O1678   2.366       .  S
O207       H1687   0.990       .  S
O208        H222   0.990       .  S
O208        H232   0.990       .  S
Zr209       O538   2.419   1_554  S
Zr209       O567   2.426   1_554  S
Zr209       O212   2.377       .  S
Zr209       O214   2.383       .  S
Zr209       O581   2.382   1_554  S
Zr210       O547   2.425   1_554  S
Zr210       O558   2.428   1_554  S
Zr210       O211   2.382       .  S
Zr210       O216   2.383       .  S
Zr210       O579   2.381   1_554  S
O211       Zr569   2.371   1_554  S
O211        H219   0.966       .  S
O212      Zr2033   2.372   1_454  S
O212      Zr1670   2.376   1_455  S
O213       Zr576   2.381       .  S
O214      Zr1650   2.369   1_455  S
O214      Zr1670   2.366   1_455  S
O214        H218   0.966       .  S
O215      Zr1647   2.370   1_455  S
O215      Zr1667   2.365   1_455  S
O215       Zr575   2.382       .  S
O215        H220   0.966       .  S
H221       O1652   0.990       .  S
H223       O1671   0.990   1_455  S
H226       O1649   0.990   1_455  S
H227       O1648   0.990   1_455  S
O233       Zr245   2.447       .  S
O233        C235   1.289       .  A
O234       Zr637   2.418       .  S
O234        C235   1.286       .  A
O236       Zr980   2.441   1_545  S
O236        C238   1.288       .  A
O237       Zr272   2.422       .  S
O237        C238   1.286       .  A
O239       Zr248   2.442       .  S
O239        C241   1.288       .  A
O240       Zr271   2.418       .  S
O240        C241   1.286       .  A
O242       Zr977   2.441   1_545  S
O242        C244   1.288       .  A
O243       Zr638   2.424       .  S
O243        C244   1.287       .  A
Zr245       O974   2.441       .  S
Zr245       O246   2.434       .  S
Zr245       O979   2.436       .  S
Zr245       O277   2.369       .  S
Zr245       O617   2.374       .  S
Zr245      O1350   2.375       .  S
Zr245      O1007   2.371       .  S
O246        H289   0.990       .  S
O247       Zr977   2.436       .  S
O247       H1020   0.990       .  S
O247       H1024   0.990       .  S
Zr248       O968   2.441       .  S
Zr248       O249   2.435       .  S
Zr248       O982   2.435       .  S
Zr248       O251   2.374       .  S
Zr248       O276   2.370       .  S
Zr248       O984   2.373       .  S
Zr248      O1010   2.370       .  S
O249        H293   0.990       .  S
O249       H1022   0.990       .  S
O250       Zr980   2.435       .  S
O250       H1015   0.990       .  S
O251       Zr271   2.382       .  S
O251       Zr611   2.374   1_554  S
O252       Zr272   2.384       .  S
O252      Zr1343   2.375   1_544  S
O252       Zr980   2.373   1_545  S
O252        H279   0.966       .  S
O253       Zr997   2.443   1_545  S
O253        C255   1.288       .  A
O254       Zr638   2.420       .  S
O254        C255   1.286       .  A
O256       Zr268   2.442       .  S
O256        C258   1.288       .  A
O257       Zr271   2.428       .  S
O257        C258   1.287       .  A
O259      Zr1000   2.439   1_545  S
O259        C261   1.287       .  A
O260       Zr272   2.423       .  S
O260        C261   1.286       .  A
O262       Zr265   2.440       .  S
O262        C264   1.288       .  A
O263       Zr637   2.426       .  S
O263        C264   1.287       .  A
Zr265       O985   2.443       .  S
Zr265       O266   2.435       .  S
Zr265       O267   2.434       .  S
Zr265       O277   2.368       .  S
Zr265      O1371   2.373       .  S
Zr265       O640   2.375       .  S
Zr265      O1007   2.369       .  S
O266        H291   0.990       .  S
O266       H1018   0.990       .  S
O267       H1019   0.990       .  S
Zr268       O991   2.439       .  S
Zr268       O269   2.434       .  S
Zr268       O270   2.436       .  S
Zr268       O274   2.375       .  S
Zr268       O276   2.366       .  S
Zr268      O1005   2.374       .  S
Zr268      O1010   2.370       .  S
O269        H285   0.990       .  S
O270        H294   0.990       .  S
O270       H1016   0.990       .  S
Zr271       O600   2.418   1_554  S
Zr271       O629   2.426   1_554  S
Zr271       O274   2.379       .  S
Zr271       O276   2.383       .  S
Zr271       O643   2.384   1_554  S
Zr272       O609   2.424   1_554  S
Zr272       O620   2.420   1_554  S
Zr272       O273   2.383       .  S
Zr272       O278   2.381       .  S
Zr272       O641   2.381   1_554  S
O273      Zr1363   2.373   1_544  S
O273      Zr1000   2.374   1_545  S
O273        H281   0.966       .  S
O274       Zr631   2.375   1_554  S
O275       Zr977   2.371   1_545  S
O275       Zr997   2.369   1_545  S
O275       Zr638   2.381       .  S
O276        H280   0.966       .  S
O277       Zr637   2.384       .  S
O277        H282   0.966       .  S
O278       Zr980   2.370   1_545  S
O278      Zr1000   2.370   1_545  S
H283        O982   0.990       .  S
H284       O1002   0.990   1_545  S
H286        O998   0.990   1_545  S
H287        O999   0.990   1_545  S
H288        O979   0.990       .  S
H290        O981   0.990   1_545  S
H292        O979   0.990       .  S
C295        C296   1.402       .  A
C295        C300   1.414       .  A
C296        C297   1.394       .  A
C296        H305   1.084       .  S
C297        C298   1.414       .  A
C297        S301   1.802       .  S
C298        C299   1.405       .  A
C299        C300   1.402       .  A
C299        H306   1.084       .  S
C300        S302   1.804       .  S
S301        H304   1.407       .  S
S302        H303   1.406       .  S
C307        C308   1.403       .  A
C307        C312   1.410       .  A
C308        C309   1.403       .  A
C308        H317   1.084       .  S
C309        C310   1.413       .  A
C309        S313   1.803       .  S
C310        C311   1.400       .  A
C311        C312   1.395       .  A
C311        H318   1.084       .  S
C312        S314   1.800       .  S
S313        H316   1.405       .  S
S314        H315   1.404       .  S
C319        C320   1.407       .  A
C319        C324   1.418       .  A
C320        C321   1.404       .  A
C320        H329   1.084       .  S
C321        C322   1.417       .  A
C321        S325   1.804       .  S
C322        C323   1.403       .  A
C323        C324   1.393       .  A
C323        H330   1.084       .  S
C324        S326   1.802       .  S
S325        H328   1.407       .  S
S326        H327   1.406       .  S
C331        C332   1.402       .  A
C331        C336   1.412       .  A
C332        C333   1.397       .  A
C332        H341   1.084       .  S
C333        C334   1.413       .  A
C333        S337   1.805       .  S
C334        C335   1.403       .  A
C335        C336   1.401       .  A
C335        H342   1.084       .  S
C336        S338   1.804       .  S
S337        H340   1.406       .  S
S338        H339   1.406       .  S
C343        C344   1.404       .  A
C343        C348   1.416       .  A
C344        C345   1.397       .  A
C344        H353   1.084       .  S
C345        C346   1.416       .  A
C345        S349   1.806       .  S
C346        C347   1.405       .  A
C347        C348   1.401       .  A
C347        H354   1.084       .  S
C348        S350   1.804       .  S
S349        H352   1.406       .  S
S350        H351   1.406       .  S
C355        C356   1.405       .  A
C355        C360   1.416       .  A
C356        C357   1.402       .  A
C356        H365   1.083       .  S
C357        C358   1.415       .  A
C357        S361   1.808       .  S
C358        C359   1.405       .  A
C359        C360   1.401       .  A
C359        H366   1.083       .  S
C360        S362   1.811       .  S
S361        H364   1.407       .  S
S362        H363   1.407       .  S
C367        C368   1.406       .  A
C367        C372   1.405       .  A
C367        C721   1.488       .  S
C368        C369   1.402       .  A
C368        H373   1.084       .  S
C369        C370   1.401       .  A
C369        C477   1.469       .  S
C370        C371   1.402       .  A
C370        H374   1.084       .  S
C371        C372   1.403       .  A
C371        C607   1.470       .  S
C372        H375   1.083       .  S
C376        C377   1.408       .  A
C376        C381   1.404       .  A
C376        C724   1.489       .  S
C377        C378   1.403       .  A
C377        H382   1.084       .  S
C378        C379   1.402       .  A
C378        C601   1.473       .  S
C379        C380   1.401       .  A
C379        H383   1.084       .  S
C380        C381   1.401       .  A
C380        C483   1.468       .  S
C381        H384   1.083       .  S
C385        C386   1.404       .  A
C385        C390   1.405       .  A
C385        C709   1.485       .  S
C386        C387   1.403       .  A
C386        H391   1.084       .  S
C387        C388   1.403       .  A
C387        C630   1.472       .  S
C388        C389   1.404       .  A
C388        H392   1.084       .  S
C389        C390   1.404       .  A
C389        C539   1.474       .  S
C390        H393   1.084       .  S
C394        C395   1.404       .  A
C394        C399   1.405       .  A
C394        C712   1.485       .  S
C395        C396   1.402       .  A
C395        H400   1.084       .  S
C396        C397   1.404       .  A
C396        C545   1.473       .  S
C397        C398   1.403       .  A
C397        H401   1.084       .  S
C398        C399   1.404       .  A
C398        C624   1.474       .  S
C399        H402   1.084       .  S
C403        C404   1.402       .  A
C403        C408   1.401       .  A
C403        C697   1.475       .  S
C404        C405   1.405       .  A
C404        H409   1.084       .  S
C405        C406   1.403       .  A
C405        C562   1.472       .  S
C406        C407   1.403       .  A
C406        H410   1.084       .  S
C407        C408   1.402       .  A
C407        C506   1.470       .  S
C408        H411   1.084       .  S
C412        C413   1.401       .  A
C412        C417   1.402       .  A
C412        C700   1.475       .  S
C413        C414   1.403       .  A
C413        H418   1.084       .  S
C414        C415   1.402       .  A
C414        C568   1.470       .  S
C415        C416   1.403       .  A
C415        H419   1.084       .  S
C416        C417   1.403       .  A
C416        C500   1.470       .  S
C417        H420   1.084       .  S
C421        C422   1.402       .  A
C421        C426   1.407       .  A
C421        C685   1.491       .  S
C422        C423   1.402       .  A
C422        H427   1.083       .  S
C423        C424   1.401       .  A
C423        C559   1.472       .  S
C424        C425   1.404       .  A
C424        H428   1.084       .  S
C425        C426   1.406       .  A
C425        C610   1.473       .  S
C426        H429   1.084       .  S
C430        C431   1.405       .  A
C430        C435   1.406       .  A
C430        C688   1.491       .  S
C431        C432   1.402       .  A
C431        H436   1.084       .  S
C432        C433   1.402       .  A
C432        C565   1.474       .  S
C433        C434   1.403       .  A
C433        H437   1.084       .  S
C434        C435   1.405       .  A
C434        C604   1.474       .  S
C435        H438   1.083       .  S
C439        C440   1.402       .  A
C439        C444   1.401       .  A
C439        C676   1.474       .  S
C440        C441   1.403       .  A
C440        H445   1.084       .  S
C441        C442   1.406       .  A
C441        C542   1.476       .  S
C442        C443   1.406       .  A
C442        H446   1.084       .  S
C443        C444   1.404       .  A
C443        C486   1.474       .  S
C444        H447   1.084       .  S
C448        C449   1.399       .  A
C448        C453   1.403       .  A
C448        C673   1.475       .  S
C449        C450   1.403       .  A
C449        H454   1.084       .  S
C450        C451   1.406       .  A
C450        C480   1.474       .  S
C451        C452   1.406       .  A
C451        H455   1.084       .  S
C452        C453   1.404       .  A
C452        C548   1.477       .  S
C453        H456   1.084       .  S
C457        C458   1.402       .  A
C457        C462   1.403       .  A
C457        C664   1.481       .  S
C458        C459   1.401       .  A
C458        H463   1.084       .  S
C459        C460   1.403       .  A
C459        C503   1.472       .  S
C460        C461   1.405       .  A
C460        H464   1.084       .  S
C461        C462   1.404       .  A
C461        C621   1.473       .  S
C462        H465   1.084       .  S
C466        C467   1.403       .  A
C466        C471   1.402       .  A
C466        C661   1.481       .  S
C467        C468   1.404       .  A
C467        H472   1.084       .  S
C468        C469   1.404       .  A
C468        C627   1.473       .  S
C469        C470   1.403       .  A
C469        H473   1.084       .  S
C470        C471   1.401       .  A
C470        C497   1.472       .  S
C471        H474   1.084       .  S
O475       Zr487   2.445       .  S
O475        C477   1.288       .  A
O476       Zr513   2.417       .  S
O476        C477   1.285       .  A
O478       Zr490   2.441       .  S
O478        C480   1.288       .  A
O479        C480   1.286       .  A
O481       Zr490   2.443       .  S
O481        C483   1.288       .  A
O482        C483   1.284       .  A
O484       Zr487   2.442       .  S
O484        C486   1.288       .  A
O485       Zr514   2.424       .  S
O485        C486   1.286       .  A
Zr487       O488   2.434       .  S
Zr487       O489   2.436       .  S
Zr487       O493   2.375       .  S
Zr487       O494   2.373       .  S
Zr487       O517   2.371       .  S
Zr487       O519   2.367       .  S
O488        H531   0.990       .  S
O489        H530   0.990       .  S
O489        H534   0.990       .  S
Zr490       O491   2.435       .  S
Zr490       O492   2.435       .  S
Zr490       O518   2.366       .  S
Zr490       O520   2.372       .  S
O491        H532   0.990       .  S
O491        H535   0.990       .  S
O492        H525   0.990       .  S
O493       Zr513   2.380       .  S
O494       Zr514   2.383       .  S
O494        H521   0.966       .  S
O495       Zr507   2.440       .  S
O495        C497   1.288       .  A
O496       Zr514   2.420       .  S
O496        C497   1.286       .  A
O498       Zr510   2.445       .  S
O498        C500   1.289       .  A
O499        C500   1.285       .  A
O501       Zr510   2.439       .  S
O501        C503   1.288       .  A
O502        C503   1.286       .  A
O504       Zr507   2.444       .  S
O504        C506   1.289       .  A
O505       Zr513   2.416       .  S
O505        C506   1.285       .  A
Zr507       O508   2.435       .  S
Zr507       O509   2.434       .  S
Zr507       O515   2.372       .  S
Zr507       O516   2.374       .  S
Zr507       O519   2.367       .  S
Zr507       O517   2.372       .  S
O508        H528   0.990       .  S
O508        H533   0.990       .  S
O509        H529   0.990       .  S
Zr510       O511   2.434       .  S
Zr510       O512   2.435       .  S
Zr510       O520   2.372       .  S
Zr510       O518   2.364       .  S
O511        H527   0.990       .  S
O512        H526   0.990       .  S
O512        H536   0.990       .  S
Zr513       O516   2.379       .  S
Zr513       O519   2.382       .  S
Zr514       O515   2.385       .  S
Zr514       O517   2.382       .  S
O515        H523   0.966       .  S
O518        H522   0.966       .  S
O519        H524   0.966       .  S
O537      Zr2013   2.450   1_455  S
O537        C539   1.290       .  A
O538        C539   1.286       .  A
O540       Zr552   2.447       .  S
O540        C542   1.289       .  A
O541       Zr576   2.424       .  S
O541        C542   1.286       .  A
O543      Zr2016   2.452   1_455  S
O543        C545   1.290       .  A
O544       Zr575   2.416       .  S
O544        C545   1.285       .  A
O546       Zr549   2.449       .  S
O546        C548   1.290       .  A
O547        C548   1.287       .  A
Zr549      O2001   2.450       .  S
Zr549       O550   2.434       .  S
Zr549       O551   2.436       .  S
Zr549      O1653   2.376   1_556  S
Zr549       O579   2.372       .  S
Zr549      O2045   2.370       .  S
O550       H2057   0.990       .  S
O551       H2056   0.990       .  S
O551        H596   0.990       .  S
Zr552      O2007   2.452       .  S
Zr552       O553   2.435       .  S
Zr552       O554   2.434       .  S
Zr552       O556   2.375       .  S
Zr552      O2019   2.374       .  S
Zr552      O2044   2.369       .  S
Zr552       O582   2.373       .  S
O553        H594   0.990       .  S
O553        H597   0.990       .  S
O554       H2051   0.990       .  S
O555      Zr1647   2.376   1_455  S
O555      Zr2016   2.374   1_455  S
O555       Zr575   2.383       .  S
O556       Zr576   2.386       .  S
O556        H583   0.966       .  S
O557       Zr569   2.428       .  S
O557        C559   1.286       .  A
O558        C559   1.287       .  A
O560      Zr2036   2.436   1_455  S
O560        C562   1.287       .  A
O561       Zr575   2.428       .  S
O561        C562   1.287       .  A
O563       Zr572   2.437       .  S
O563        C565   1.287       .  A
O564       Zr576   2.423       .  S
O564        C565   1.286       .  A
O566      Zr2033   2.434   1_455  S
O566        C568   1.286       .  A
O567        C568   1.287       .  A
Zr569      O2030   2.434       .  S
Zr569       O570   2.435       .  S
Zr569       O571   2.434       .  S
Zr569      O1676   2.372   1_556  S
Zr569      O2045   2.365       .  S
Zr569       O579   2.372       .  S
O570        H590   0.990       .  S
O570        H595   0.990       .  S
O571        H591   0.990       .  S
Zr572      O2024   2.436       .  S
Zr572       O573   2.434       .  S
Zr572       O574   2.435       .  S
Zr572      O2042   2.376       .  S
Zr572       O577   2.369       .  S
Zr572       O582   2.369       .  S
Zr572      O2044   2.366       .  S
O573       H2053   0.990       .  S
O574        H588   0.990       .  S
O574        H598   0.990       .  S
Zr575       O578   2.377       .  S
Zr575       O580   2.383       .  S
Zr576       O577   2.382       .  S
Zr576       O582   2.383       .  S
O577        H585   0.966       .  S
O578      Zr1667   2.372   1_455  S
O578      Zr2036   2.376   1_455  S
O580      Zr2016   2.369   1_455  S
O580      Zr2036   2.366   1_455  S
O580        H584   0.966       .  S
O581      Zr2013   2.370   1_455  S
O581      Zr2033   2.365   1_455  S
O581        H586   0.966       .  S
H587       O2018   0.990       .  S
H589       O2037   0.990   1_455  S
H592       O2015   0.990   1_455  S
H593       O2014   0.990   1_455  S
O599       Zr611   2.447       .  S
O599        C601   1.289       .  A
O600        C601   1.286       .  A
O602      Zr1346   2.441   1_545  S
O602        C604   1.288       .  A
O603       Zr638   2.422       .  S
O603        C604   1.286       .  A
O605       Zr614   2.442       .  S
O605        C607   1.288       .  A
O606       Zr637   2.418       .  S
O606        C607   1.286       .  A
O608      Zr1343   2.441   1_545  S
O608        C610   1.288       .  A
O609        C610   1.287       .  A
Zr611      O1340   2.441       .  S
Zr611       O612   2.434       .  S
Zr611      O1345   2.436       .  S
Zr611       O984   2.375   1_556  S
Zr611      O1373   2.371       .  S
Zr611       O643   2.369       .  S
O612        H655   0.990       .  S
O613      Zr1343   2.436       .  S
O613       H1386   0.990       .  S
O613       H1390   0.990       .  S
Zr614      O1334   2.441       .  S
Zr614       O615   2.435       .  S
Zr614      O1348   2.435       .  S
Zr614      O1350   2.373       .  S
Zr614       O617   2.374       .  S
Zr614       O642   2.370       .  S
Zr614      O1376   2.370       .  S
O615       H1388   0.990       .  S
O615        H659   0.990       .  S
O616      Zr1346   2.435       .  S
O616       H1381   0.990       .  S
O617       Zr637   2.382       .  S
O618       Zr977   2.375   1_545  S
O618      Zr1346   2.373   1_545  S
O618       Zr638   2.384       .  S
O618        H645   0.966       .  S
O619      Zr1363   2.443   1_545  S
O619        C621   1.288       .  A
O620        C621   1.286       .  A
O622       Zr634   2.442       .  S
O622        C624   1.288       .  A
O623       Zr637   2.428       .  S
O623        C624   1.287       .  A
O625      Zr1366   2.439   1_545  S
O625        C627   1.287       .  A
O626       Zr638   2.423       .  S
O626        C627   1.286       .  A
O628       Zr631   2.440       .  S
O628        C630   1.288       .  A
O629        C630   1.287       .  A
Zr631      O1351   2.443       .  S
Zr631       O632   2.435       .  S
Zr631       O633   2.434       .  S
Zr631      O1005   2.373   1_556  S
Zr631       O643   2.368       .  S
Zr631      O1373   2.369       .  S
O632       H1384   0.990       .  S
O632        H657   0.990       .  S
O633       H1385   0.990       .  S
Zr634      O1357   2.439       .  S
Zr634       O635   2.434       .  S
Zr634       O636   2.436       .  S
Zr634       O640   2.375       .  S
Zr634      O1371   2.374       .  S
Zr634      O1376   2.370       .  S
Zr634       O642   2.366       .  S
O635        H651   0.990       .  S
O636       H1382   0.990       .  S
O636        H660   0.990       .  S
Zr637       O640   2.379       .  S
Zr637       O642   2.383       .  S
Zr638       O639   2.383       .  S
Zr638       O644   2.381       .  S
O639       Zr997   2.373   1_545  S
O639      Zr1366   2.374   1_545  S
O639        H647   0.966       .  S
O641      Zr1343   2.371   1_545  S
O641      Zr1363   2.369   1_545  S
O642        H646   0.966       .  S
O643        H648   0.966       .  S
O644      Zr1346   2.370   1_545  S
O644      Zr1366   2.370   1_545  S
H649       O1348   0.990       .  S
H650       O1368   0.990   1_545  S
H652       O1364   0.990   1_545  S
H653       O1365   0.990   1_545  S
H654       O1345   0.990       .  S
H656       O1347   0.990   1_545  S
H658       O1345   0.990       .  S
C661        C662   1.402       .  A
C661        C666   1.414       .  A
C662        C663   1.394       .  A
C662        H671   1.084       .  S
C663        C664   1.414       .  A
C663        S667   1.802       .  S
C664        C665   1.405       .  A
C665        C666   1.402       .  A
C665        H672   1.084       .  S
C666        S668   1.804       .  S
S667        H670   1.407       .  S
S668        H669   1.406       .  S
C673        C674   1.403       .  A
C673        C678   1.410       .  A
C674        C675   1.403       .  A
C674        H683   1.084       .  S
C675        C676   1.413       .  A
C675        S679   1.803       .  S
C676        C677   1.400       .  A
C677        C678   1.395       .  A
C677        H684   1.084       .  S
C678        S680   1.800       .  S
S679        H682   1.405       .  S
S680        H681   1.404       .  S
C685        C686   1.407       .  A
C685        C690   1.418       .  A
C686        C687   1.404       .  A
C686        H695   1.084       .  S
C687        C688   1.417       .  A
C687        S691   1.804       .  S
C688        C689   1.403       .  A
C689        C690   1.393       .  A
C689        H696   1.084       .  S
C690        S692   1.802       .  S
S691        H694   1.407       .  S
S692        H693   1.406       .  S
C697        C698   1.402       .  A
C697        C702   1.412       .  A
C698        C699   1.397       .  A
C698        H707   1.084       .  S
C699        C700   1.413       .  A
C699        S703   1.805       .  S
C700        C701   1.403       .  A
C701        C702   1.401       .  A
C701        H708   1.084       .  S
C702        S704   1.804       .  S
S703        H706   1.406       .  S
S704        H705   1.406       .  S
C709        C710   1.404       .  A
C709        C714   1.416       .  A
C710        C711   1.397       .  A
C710        H719   1.084       .  S
C711        C712   1.416       .  A
C711        S715   1.806       .  S
C712        C713   1.405       .  A
C713        C714   1.401       .  A
C713        H720   1.084       .  S
C714        S716   1.804       .  S
S715        H718   1.406       .  S
S716        H717   1.406       .  S
C721        C722   1.405       .  A
C721        C726   1.416       .  A
C722        C723   1.402       .  A
C722        H731   1.083       .  S
C723        C724   1.415       .  A
C723        S727   1.808       .  S
C724        C725   1.405       .  A
C725        C726   1.401       .  A
C725        H732   1.083       .  S
C726        S728   1.811       .  S
S727        H730   1.407       .  S
S728        H729   1.407       .  S
C733        C734   1.406       .  A
C733        C738   1.405       .  A
C733       C1087   1.488       .  S
C734        C735   1.402       .  A
C734        H739   1.084       .  S
C735        C736   1.401       .  A
C735        C843   1.469       .  S
C736        C737   1.402       .  A
C736        H740   1.084       .  S
C737        C738   1.403       .  A
C737        C973   1.470       .  S
C738        H741   1.083       .  S
C742        C743   1.408       .  A
C742        C747   1.404       .  A
C742       C1090   1.489       .  S
C743        C744   1.403       .  A
C743        H748   1.084       .  S
C744        C745   1.402       .  A
C744        C967   1.473       .  S
C745        C746   1.401       .  A
C745        H749   1.084       .  S
C746        C747   1.401       .  A
C746        C849   1.468       .  S
C747        H750   1.083       .  S
C751        C752   1.404       .  A
C751        C756   1.405       .  A
C751       C1075   1.485       .  S
C752        C753   1.403       .  A
C752        H757   1.084       .  S
C753        C754   1.403       .  A
C753        C996   1.472       .  S
C754        C755   1.404       .  A
C754        H758   1.084       .  S
C755        C756   1.404       .  A
C755        C905   1.474       .  S
C756        H759   1.084       .  S
C760        C761   1.404       .  A
C760        C765   1.405       .  A
C760       C1078   1.485       .  S
C761        C762   1.402       .  A
C761        H766   1.084       .  S
C762        C763   1.404       .  A
C762        C911   1.473       .  S
C763        C764   1.403       .  A
C763        H767   1.084       .  S
C764        C765   1.404       .  A
C764        C990   1.474       .  S
C765        H768   1.084       .  S
C769        C770   1.402       .  A
C769        C774   1.401       .  A
C769       C1063   1.475       .  S
C770        C771   1.405       .  A
C770        H775   1.084       .  S
C771        C772   1.403       .  A
C771        C928   1.472       .  S
C772        C773   1.403       .  A
C772        H776   1.084       .  S
C773        C774   1.402       .  A
C773        C872   1.470       .  S
C774        H777   1.084       .  S
C778        C779   1.401       .  A
C778        C783   1.402       .  A
C778       C1066   1.475       .  S
C779        C780   1.403       .  A
C779        H784   1.084       .  S
C780        C781   1.402       .  A
C780        C934   1.470       .  S
C781        C782   1.403       .  A
C781        H785   1.084       .  S
C782        C783   1.403       .  A
C782        C866   1.470       .  S
C783        H786   1.084       .  S
C787        C788   1.402       .  A
C787        C792   1.407       .  A
C787       C1051   1.491       .  S
C788        C789   1.402       .  A
C788        H793   1.083       .  S
C789        C790   1.401       .  A
C789        C925   1.472       .  S
C790        C791   1.404       .  A
C790        H794   1.084       .  S
C791        C792   1.406       .  A
C791        C976   1.473       .  S
C792        H795   1.084       .  S
C796        C797   1.405       .  A
C796        C801   1.406       .  A
C796       C1054   1.491       .  S
C797        C798   1.402       .  A
C797        H802   1.084       .  S
C798        C799   1.402       .  A
C798        C931   1.474       .  S
C799        C800   1.403       .  A
C799        H803   1.084       .  S
C800        C801   1.405       .  A
C800        C970   1.474       .  S
C801        H804   1.083       .  S
C805        C806   1.402       .  A
C805        C810   1.401       .  A
C805       C1042   1.474       .  S
C806        C807   1.403       .  A
C806        H811   1.084       .  S
C807        C808   1.406       .  A
C807        C908   1.476       .  S
C808        C809   1.406       .  A
C808        H812   1.084       .  S
C809        C810   1.404       .  A
C809        C852   1.474       .  S
C810        H813   1.084       .  S
C814        C815   1.399       .  A
C814        C819   1.403       .  A
C814       C1039   1.475       .  S
C815        C816   1.403       .  A
C815        H820   1.084       .  S
C816        C817   1.406       .  A
C816        C846   1.474       .  S
C817        C818   1.406       .  A
C817        H821   1.084       .  S
C818        C819   1.404       .  A
C818        C914   1.477       .  S
C819        H822   1.084       .  S
C823        C824   1.402       .  A
C823        C828   1.403       .  A
C823       C1030   1.481       .  S
C824        C825   1.401       .  A
C824        H829   1.084       .  S
C825        C826   1.403       .  A
C825        C869   1.472       .  S
C826        C827   1.405       .  A
C826        H830   1.084       .  S
C827        C828   1.404       .  A
C827        C987   1.473       .  S
C828        H831   1.084       .  S
C832        C833   1.403       .  A
C832        C837   1.402       .  A
C832       C1027   1.481       .  S
C833        C834   1.404       .  A
C833        H838   1.084       .  S
C834        C835   1.404       .  A
C834        C993   1.473       .  S
C835        C836   1.403       .  A
C835        H839   1.084       .  S
C836        C837   1.401       .  A
C836        C863   1.472       .  S
C837        H840   1.084       .  S
O841       Zr853   2.445       .  S
O841        C843   1.288       .  A
O842       Zr879   2.417       .  S
O842        C843   1.285       .  A
O844       Zr856   2.441       .  S
O844        C846   1.288       .  A
O845      Zr1246   2.424       .  S
O845        C846   1.286       .  A
O847       Zr856   2.443       .  S
O847        C849   1.288       .  A
O848      Zr1245   2.416       .  S
O848        C849   1.284       .  A
O850       Zr853   2.442       .  S
O850        C852   1.288       .  A
O851       Zr880   2.424       .  S
O851        C852   1.286       .  A
Zr853       O854   2.434       .  S
Zr853       O855   2.436       .  S
Zr853       O859   2.375       .  S
Zr853       O860   2.373       .  S
Zr853       O883   2.371       .  S
Zr853       O885   2.367       .  S
O854        H897   0.990       .  S
O855        H896   0.990       .  S
O855        H900   0.990       .  S
Zr856       O857   2.435       .  S
Zr856       O858   2.435       .  S
Zr856      O1226   2.372       .  S
Zr856      O1225   2.374       .  S
Zr856       O884   2.366       .  S
Zr856       O886   2.372       .  S
O857        H898   0.990       .  S
O857        H901   0.990       .  S
O858        H891   0.990       .  S
O859      Zr1222   2.374   1_554  S
O859       Zr879   2.380       .  S
O860      Zr1222   2.372   1_554  S
O860       Zr880   2.383       .  S
O860        H887   0.966       .  S
O861       Zr873   2.440       .  S
O861        C863   1.288       .  A
O862       Zr880   2.420       .  S
O862        C863   1.286       .  A
O864       Zr876   2.445       .  S
O864        C866   1.289       .  A
O865      Zr1245   2.416       .  S
O865        C866   1.285       .  A
O867       Zr876   2.439       .  S
O867        C869   1.288       .  A
O868      Zr1246   2.422       .  S
O868        C869   1.286       .  A
O870       Zr873   2.444       .  S
O870        C872   1.289       .  A
O871       Zr879   2.416       .  S
O871        C872   1.285       .  A
Zr873       O874   2.435       .  S
Zr873       O875   2.434       .  S
Zr873       O881   2.372       .  S
Zr873       O882   2.374       .  S
Zr873       O885   2.367       .  S
Zr873       O883   2.372       .  S
O874        H894   0.990       .  S
O874        H899   0.990       .  S
O875        H895   0.990       .  S
Zr876       O877   2.434       .  S
Zr876       O878   2.435       .  S
Zr876      O1248   2.376       .  S
Zr876      O1247   2.373       .  S
Zr876       O886   2.372       .  S
Zr876       O884   2.364       .  S
O877        H893   0.990       .  S
O878        H892   0.990       .  S
O878        H902   0.990       .  S
Zr879      O1214   2.416   1_554  S
Zr879      O1231   2.416   1_554  S
Zr879       O882   2.379       .  S
Zr879      O1250   2.381   1_554  S
Zr879       O885   2.382       .  S
Zr880      O1211   2.424   1_554  S
Zr880      O1234   2.422   1_554  S
Zr880       O881   2.385       .  S
Zr880       O883   2.382       .  S
Zr880      O1252   2.382   1_554  S
O881      Zr1242   2.373   1_554  S
O881        H889   0.966       .  S
O882      Zr1242   2.376   1_554  S
O884      Zr1245   2.381       .  S
O884        H888   0.966       .  S
O885        H890   0.966       .  S
O886      Zr1246   2.382       .  S
O903      Zr2379   2.450   1_455  S
O903        C905   1.290       .  A
O904      Zr1307   2.419       .  S
O904        C905   1.286       .  A
O906       Zr918   2.447       .  S
O906        C908   1.289       .  A
O907       Zr942   2.424       .  S
O907        C908   1.286       .  A
O909      Zr2382   2.452   1_455  S
O909        C911   1.290       .  A
O910       Zr941   2.416       .  S
O910        C911   1.285       .  A
O912       Zr915   2.449       .  S
O912        C914   1.290       .  A
O913      Zr1308   2.425       .  S
O913        C914   1.287       .  A
Zr915      O2367   2.450       .  S
Zr915       O916   2.434       .  S
Zr915       O917   2.436       .  S
Zr915      O2751   2.376       .  S
Zr915      O1288   2.373       .  S
Zr915       O945   2.372       .  S
Zr915      O2411   2.370       .  S
O916       H2423   0.990       .  S
O917       H2422   0.990       .  S
O917        H962   0.990       .  S
Zr918      O2373   2.452       .  S
Zr918       O919   2.435       .  S
Zr918       O920   2.434       .  S
Zr918       O922   2.375       .  S
Zr918      O2385   2.374       .  S
Zr918      O2410   2.369       .  S
Zr918       O948   2.373       .  S
O919        H960   0.990       .  S
O919        H963   0.990       .  S
O920       H2417   0.990       .  S
O921      Zr2745   2.376   1_454  S
O921      Zr2382   2.374   1_455  S
O921       Zr941   2.383       .  S
O922      Zr1281   2.373   1_554  S
O922       Zr942   2.386       .  S
O922        H949   0.966       .  S
O923       Zr935   2.428       .  S
O923        C925   1.286       .  A
O924      Zr1308   2.428       .  S
O924        C925   1.287       .  A
O926      Zr2402   2.436   1_455  S
O926        C928   1.287       .  A
O927       Zr941   2.428       .  S
O927        C928   1.287       .  A
O929       Zr938   2.437       .  S
O929        C931   1.287       .  A
O930       Zr942   2.423       .  S
O930        C931   1.286       .  A
O932      Zr2399   2.434   1_455  S
O932        C934   1.286       .  A
O933      Zr1307   2.426       .  S
O933        C934   1.287       .  A
Zr935      O2396   2.434       .  S
Zr935       O936   2.435       .  S
Zr935       O937   2.434       .  S
Zr935      O1309   2.371       .  S
Zr935      O2774   2.372       .  S
Zr935      O2411   2.365       .  S
Zr935       O945   2.372       .  S
O936        H956   0.990       .  S
O936        H961   0.990       .  S
O937        H957   0.990       .  S
Zr938      O2390   2.436       .  S
Zr938       O939   2.434       .  S
Zr938       O940   2.435       .  S
Zr938      O2408   2.376       .  S
Zr938       O943   2.369       .  S
Zr938       O948   2.369       .  S
Zr938      O2410   2.366       .  S
O939       H2419   0.990       .  S
O940        H954   0.990       .  S
O940        H964   0.990       .  S
Zr941      O1270   2.419   1_554  S
Zr941      O1299   2.426   1_554  S
Zr941       O944   2.377       .  S
Zr941       O946   2.383       .  S
Zr941      O1313   2.382   1_554  S
Zr942      O1279   2.425   1_554  S
Zr942      O1290   2.428   1_554  S
Zr942       O943   2.382       .  S
Zr942      O1311   2.381   1_554  S
Zr942       O948   2.383       .  S
O943      Zr1301   2.371   1_554  S
O943        H951   0.966       .  S
O944      Zr2765   2.372   1_454  S
O944      Zr2402   2.376   1_455  S
O945      Zr1308   2.381       .  S
O946      Zr2382   2.369   1_455  S
O946      Zr2402   2.366   1_455  S
O946        H950   0.966       .  S
O947      Zr2379   2.370   1_455  S
O947      Zr2399   2.365   1_455  S
O947      Zr1307   2.382       .  S
O947        H952   0.966       .  S
H953       O2384   0.990       .  S
H955       O2403   0.990   1_455  S
H958       O2381   0.990   1_455  S
H959       O2380   0.990   1_455  S
O965       Zr977   2.447       .  S
O965        C967   1.289       .  A
O966      Zr1369   2.418       .  S
O966        C967   1.286       .  A
O968        C970   1.288       .  A
O969      Zr1004   2.422       .  S
O969        C970   1.286       .  A
O971       Zr980   2.442       .  S
O971        C973   1.288       .  A
O972      Zr1003   2.418       .  S
O972        C973   1.286       .  A
O974        C976   1.288       .  A
O975      Zr1370   2.424       .  S
O975        C976   1.287       .  A
Zr977       O978   2.434       .  S
Zr977      O1349   2.374       .  S
Zr977      O1009   2.369       .  S
O978       H1021   0.990       .  S
Zr980       O981   2.435       .  S
Zr980       O983   2.374       .  S
Zr980      O1008   2.370       .  S
O981       H1025   0.990       .  S
O983      Zr1343   2.374   1_554  S
O983      Zr1003   2.382       .  S
O984      Zr1004   2.384       .  S
O984       H1011   0.966       .  S
O985        C987   1.288       .  A
O986      Zr1370   2.420       .  S
O986        C987   1.286       .  A
O988      Zr1000   2.442       .  S
O988        C990   1.288       .  A
O989      Zr1003   2.428       .  S
O989        C990   1.287       .  A
O991        C993   1.287       .  A
O992      Zr1004   2.423       .  S
O992        C993   1.286       .  A
O994       Zr997   2.440       .  S
O994        C996   1.288       .  A
O995      Zr1369   2.426       .  S
O995        C996   1.287       .  A
Zr997       O998   2.435       .  S
Zr997       O999   2.434       .  S
Zr997      O1372   2.375       .  S
Zr997      O1009   2.368       .  S
O998       H1023   0.990       .  S
Zr1000     O1001   2.434       .  S
Zr1000     O1002   2.436       .  S
Zr1000     O1006   2.375       .  S
Zr1000     O1008   2.366       .  S
O1001      H1017   0.990       .  S
O1002      H1026   0.990   1_565  S
Zr1003     O1332   2.418   1_554  S
Zr1003     O1361   2.426   1_554  S
Zr1003     O1006   2.379       .  S
Zr1003     O1008   2.383       .  S
Zr1003     O1375   2.384   1_554  S
Zr1004     O1341   2.424   1_554  S
Zr1004     O1352   2.420   1_554  S
Zr1004     O1005   2.383       .  S
Zr1004     O1373   2.381   1_554  S
Zr1004     O1010   2.381       .  S
O1005      H1013   0.966       .  S
O1006     Zr1363   2.375   1_554  S
O1007     Zr1370   2.381       .  S
O1008      H1012   0.966       .  S
O1009     Zr1369   2.384       .  S
O1009      H1014   0.966       .  S
C1027      C1028   1.402       .  A
C1027      C1032   1.414       .  A
C1028      C1029   1.394       .  A
C1028      H1037   1.084       .  S
C1029      C1030   1.414       .  A
C1029      S1033   1.802       .  S
C1030      C1031   1.405       .  A
C1031      C1032   1.402       .  A
C1031      H1038   1.084       .  S
C1032      S1034   1.804       .  S
S1033      H1036   1.407       .  S
S1034      H1035   1.406       .  S
C1039      C1040   1.403       .  A
C1039      C1044   1.410       .  A
C1040      C1041   1.403       .  A
C1040      H1049   1.084       .  S
C1041      C1042   1.413       .  A
C1041      S1045   1.803       .  S
C1042      C1043   1.400       .  A
C1043      C1044   1.395       .  A
C1043      H1050   1.084       .  S
C1044      S1046   1.800       .  S
S1045      H1048   1.405       .  S
S1046      H1047   1.404       .  S
C1051      C1052   1.407       .  A
C1051      C1056   1.418       .  A
C1052      C1053   1.404       .  A
C1052      H1061   1.084       .  S
C1053      C1054   1.417       .  A
C1053      S1057   1.804       .  S
C1054      C1055   1.403       .  A
C1055      C1056   1.393       .  A
C1055      H1062   1.084       .  S
C1056      S1058   1.802       .  S
S1057      H1060   1.407       .  S
S1058      H1059   1.406       .  S
C1063      C1064   1.402       .  A
C1063      C1068   1.412       .  A
C1064      C1065   1.397       .  A
C1064      H1073   1.084       .  S
C1065      C1066   1.413       .  A
C1065      S1069   1.805       .  S
C1066      C1067   1.403       .  A
C1067      C1068   1.401       .  A
C1067      H1074   1.084       .  S
C1068      S1070   1.804       .  S
S1069      H1072   1.406       .  S
S1070      H1071   1.406       .  S
C1075      C1076   1.404       .  A
C1075      C1080   1.416       .  A
C1076      C1077   1.397       .  A
C1076      H1085   1.084       .  S
C1077      C1078   1.416       .  A
C1077      S1081   1.806       .  S
C1078      C1079   1.405       .  A
C1079      C1080   1.401       .  A
C1079      H1086   1.084       .  S
C1080      S1082   1.804       .  S
S1081      H1084   1.406       .  S
S1082      H1083   1.406       .  S
C1087      C1088   1.405       .  A
C1087      C1092   1.416       .  A
C1088      C1089   1.402       .  A
C1088      H1097   1.083       .  S
C1089      C1090   1.415       .  A
C1089      S1093   1.808       .  S
C1090      C1091   1.405       .  A
C1091      C1092   1.401       .  A
C1091      H1098   1.083       .  S
C1092      S1094   1.811       .  S
S1093      H1096   1.407       .  S
S1094      H1095   1.407       .  S
C1099      C1100   1.406       .  A
C1099      C1104   1.405       .  A
C1099      C1453   1.488       .  S
C1100      C1101   1.402       .  A
C1100      H1105   1.084       .  S
C1101      C1102   1.401       .  A
C1101      C1209   1.469       .  S
C1102      C1103   1.402       .  A
C1102      H1106   1.084       .  S
C1103      C1104   1.403       .  A
C1103      C1339   1.470       .  S
C1104      H1107   1.083       .  S
C1108      C1109   1.408       .  A
C1108      C1113   1.404       .  A
C1108      C1456   1.489       .  S
C1109      C1110   1.403       .  A
C1109      H1114   1.084       .  S
C1110      C1111   1.402       .  A
C1110      C1333   1.473       .  S
C1111      C1112   1.401       .  A
C1111      H1115   1.084       .  S
C1112      C1113   1.401       .  A
C1112      C1215   1.468       .  S
C1113      H1116   1.083       .  S
C1117      C1118   1.404       .  A
C1117      C1122   1.405       .  A
C1117      C1441   1.485       .  S
C1118      C1119   1.403       .  A
C1118      H1123   1.084       .  S
C1119      C1120   1.403       .  A
C1119      C1362   1.472       .  S
C1120      C1121   1.404       .  A
C1120      H1124   1.084       .  S
C1121      C1122   1.404       .  A
C1121      C1271   1.474       .  S
C1122      H1125   1.084       .  S
C1126      C1127   1.404       .  A
C1126      C1131   1.405       .  A
C1126      C1444   1.485       .  S
C1127      C1128   1.402       .  A
C1127      H1132   1.084       .  S
C1128      C1129   1.404       .  A
C1128      C1277   1.473       .  S
C1129      C1130   1.403       .  A
C1129      H1133   1.084       .  S
C1130      C1131   1.404       .  A
C1130      C1356   1.474       .  S
C1131      H1134   1.084       .  S
C1135      C1136   1.402       .  A
C1135      C1140   1.401       .  A
C1135      C1429   1.475       .  S
C1136      C1137   1.405       .  A
C1136      H1141   1.084       .  S
C1137      C1138   1.403       .  A
C1137      C1294   1.472       .  S
C1138      C1139   1.403       .  A
C1138      H1142   1.084       .  S
C1139      C1140   1.402       .  A
C1139      C1238   1.470       .  S
C1140      H1143   1.084       .  S
C1144      C1145   1.401       .  A
C1144      C1149   1.402       .  A
C1144      C1432   1.475       .  S
C1145      C1146   1.403       .  A
C1145      H1150   1.084       .  S
C1146      C1147   1.402       .  A
C1146      C1300   1.470       .  S
C1147      C1148   1.403       .  A
C1147      H1151   1.084       .  S
C1148      C1149   1.403       .  A
C1148      C1232   1.470       .  S
C1149      H1152   1.084       .  S
C1153      C1154   1.402       .  A
C1153      C1158   1.407       .  A
C1153      C1417   1.491       .  S
C1154      C1155   1.402       .  A
C1154      H1159   1.083       .  S
C1155      C1156   1.401       .  A
C1155      C1291   1.472       .  S
C1156      C1157   1.404       .  A
C1156      H1160   1.084       .  S
C1157      C1158   1.406       .  A
C1157      C1342   1.473       .  S
C1158      H1161   1.084       .  S
C1162      C1163   1.405       .  A
C1162      C1167   1.406       .  A
C1162      C1420   1.491       .  S
C1163      C1164   1.402       .  A
C1163      H1168   1.084       .  S
C1164      C1165   1.402       .  A
C1164      C1297   1.474       .  S
C1165      C1166   1.403       .  A
C1165      H1169   1.084       .  S
C1166      C1167   1.405       .  A
C1166      C1336   1.474       .  S
C1167      H1170   1.083       .  S
C1171      C1172   1.402       .  A
C1171      C1176   1.401       .  A
C1171      C1408   1.474       .  S
C1172      C1173   1.403       .  A
C1172      H1177   1.084       .  S
C1173      C1174   1.406       .  A
C1173      C1274   1.476       .  S
C1174      C1175   1.406       .  A
C1174      H1178   1.084       .  S
C1175      C1176   1.404       .  A
C1175      C1218   1.474       .  S
C1176      H1179   1.084       .  S
C1180      C1181   1.399       .  A
C1180      C1185   1.403       .  A
C1180      C1405   1.475       .  S
C1181      C1182   1.403       .  A
C1181      H1186   1.084       .  S
C1182      C1183   1.406       .  A
C1182      C1212   1.474       .  S
C1183      C1184   1.406       .  A
C1183      H1187   1.084       .  S
C1184      C1185   1.404       .  A
C1184      C1280   1.477       .  S
C1185      H1188   1.084       .  S
C1189      C1190   1.402       .  A
C1189      C1194   1.403       .  A
C1189      C1396   1.481       .  S
C1190      C1191   1.401       .  A
C1190      H1195   1.084       .  S
C1191      C1192   1.403       .  A
C1191      C1235   1.472       .  S
C1192      C1193   1.405       .  A
C1192      H1196   1.084       .  S
C1193      C1194   1.404       .  A
C1193      C1353   1.473       .  S
C1194      H1197   1.084       .  S
C1198      C1199   1.403       .  A
C1198      C1203   1.402       .  A
C1198      C1393   1.481       .  S
C1199      C1200   1.404       .  A
C1199      H1204   1.084       .  S
C1200      C1201   1.404       .  A
C1200      C1359   1.473       .  S
C1201      C1202   1.403       .  A
C1201      H1205   1.084       .  S
C1202      C1203   1.401       .  A
C1202      C1229   1.472       .  S
C1203      H1206   1.084       .  S
O1207     Zr1219   2.445       .  S
O1207      C1209   1.288       .  A
O1208     Zr1245   2.417       .  S
O1208      C1209   1.285       .  A
O1210     Zr1222   2.441       .  S
O1210      C1212   1.288       .  A
O1211      C1212   1.286       .  A
O1213     Zr1222   2.443       .  S
O1213      C1215   1.288       .  A
O1214      C1215   1.284       .  A
O1216     Zr1219   2.442       .  S
O1216      C1218   1.288       .  A
O1217     Zr1246   2.424       .  S
O1217      C1218   1.286       .  A
Zr1219     O1220   2.434       .  S
Zr1219     O1221   2.436       .  S
Zr1219     O1225   2.375       .  S
Zr1219     O1226   2.373       .  S
Zr1219     O1249   2.371       .  S
Zr1219     O1251   2.367       .  S
O1220      H1263   0.990       .  S
O1221      H1262   0.990       .  S
O1221      H1266   0.990       .  S
Zr1222     O1223   2.435       .  S
Zr1222     O1224   2.435       .  S
Zr1222     O1250   2.366       .  S
Zr1222     O1252   2.372       .  S
O1223      H1264   0.990       .  S
O1223      H1267   0.990       .  S
O1224      H1257   0.990       .  S
O1225     Zr1245   2.380       .  S
O1226     Zr1246   2.383       .  S
O1226      H1253   0.966       .  S
O1227     Zr1239   2.440       .  S
O1227      C1229   1.288       .  A
O1228     Zr1246   2.420       .  S
O1228      C1229   1.286       .  A
O1230     Zr1242   2.445       .  S
O1230      C1232   1.289       .  A
O1231      C1232   1.285       .  A
O1233     Zr1242   2.439       .  S
O1233      C1235   1.288       .  A
O1234      C1235   1.286       .  A
O1236     Zr1239   2.444       .  S
O1236      C1238   1.289       .  A
O1237     Zr1245   2.416       .  S
O1237      C1238   1.285       .  A
Zr1239     O1240   2.435       .  S
Zr1239     O1241   2.434       .  S
Zr1239     O1247   2.372       .  S
Zr1239     O1248   2.374       .  S
Zr1239     O1251   2.367       .  S
Zr1239     O1249   2.372       .  S
O1240      H1260   0.990       .  S
O1240      H1265   0.990       .  S
O1241      H1261   0.990       .  S
Zr1242     O1243   2.434       .  S
Zr1242     O1244   2.435       .  S
Zr1242     O1252   2.372       .  S
Zr1242     O1250   2.364       .  S
O1243      H1259   0.990       .  S
O1244      H1258   0.990       .  S
O1244      H1268   0.990       .  S
Zr1245     O1248   2.379       .  S
Zr1245     O1251   2.382       .  S
Zr1246     O1247   2.385       .  S
Zr1246     O1249   2.382       .  S
O1247      H1255   0.966       .  S
O1250      H1254   0.966       .  S
O1251      H1256   0.966       .  S
O1269     Zr2745   2.450   1_455  S
O1269      C1271   1.290       .  A
O1270      C1271   1.286       .  A
O1272     Zr1284   2.447       .  S
O1272      C1274   1.289       .  A
O1273     Zr1308   2.424       .  S
O1273      C1274   1.286       .  A
O1275     Zr2748   2.452   1_455  S
O1275      C1277   1.290       .  A
O1276     Zr1307   2.416       .  S
O1276      C1277   1.285       .  A
O1278     Zr1281   2.449       .  S
O1278      C1280   1.290       .  A
O1279      C1280   1.287       .  A
Zr1281     O2733   2.450       .  S
Zr1281     O1282   2.434       .  S
Zr1281     O1283   2.436       .  S
Zr1281     O2385   2.376   1_556  S
Zr1281     O1311   2.372       .  S
Zr1281     O2777   2.370       .  S
O1282      H2789   0.990       .  S
O1283      H2788   0.990       .  S
O1283      H1328   0.990       .  S
Zr1284     O2739   2.452       .  S
Zr1284     O1285   2.435       .  S
Zr1284     O1286   2.434       .  S
Zr1284     O1288   2.375       .  S
Zr1284     O2751   2.374       .  S
Zr1284     O2776   2.369       .  S
Zr1284     O1314   2.373       .  S
O1285      H1326   0.990       .  S
O1285      H1329   0.990       .  S
O1286      H2783   0.990       .  S
O1287     Zr2379   2.376   1_455  S
O1287     Zr2748   2.374   1_455  S
O1287     Zr1307   2.383       .  S
O1288     Zr1308   2.386       .  S
O1288      H1315   0.966       .  S
O1289     Zr1301   2.428       .  S
O1289      C1291   1.286       .  A
O1290      C1291   1.287       .  A
O1292     Zr2768   2.436   1_455  S
O1292      C1294   1.287       .  A
O1293     Zr1307   2.428       .  S
O1293      C1294   1.287       .  A
O1295     Zr1304   2.437       .  S
O1295      C1297   1.287       .  A
O1296     Zr1308   2.423       .  S
O1296      C1297   1.286       .  A
O1298     Zr2765   2.434   1_455  S
O1298      C1300   1.286       .  A
O1299      C1300   1.287       .  A
Zr1301     O2762   2.434       .  S
Zr1301     O1302   2.435       .  S
Zr1301     O1303   2.434       .  S
Zr1301     O2408   2.372   1_556  S
Zr1301     O2777   2.365       .  S
Zr1301     O1311   2.372       .  S
O1302      H1322   0.990       .  S
O1302      H1327   0.990       .  S
O1303      H1323   0.990       .  S
Zr1304     O2756   2.436       .  S
Zr1304     O1305   2.434       .  S
Zr1304     O1306   2.435       .  S
Zr1304     O2774   2.376       .  S
Zr1304     O1309   2.369       .  S
Zr1304     O1314   2.369       .  S
Zr1304     O2776   2.366       .  S
O1305      H2785   0.990       .  S
O1306      H1320   0.990       .  S
O1306      H1330   0.990       .  S
Zr1307     O1310   2.377       .  S
Zr1307     O1312   2.383       .  S
Zr1308     O1309   2.382       .  S
Zr1308     O1314   2.383       .  S
O1309      H1317   0.966       .  S
O1310     Zr2399   2.372   1_455  S
O1310     Zr2768   2.376   1_455  S
O1312     Zr2748   2.369   1_455  S
O1312     Zr2768   2.366   1_455  S
O1312      H1316   0.966       .  S
O1313     Zr2745   2.370   1_455  S
O1313     Zr2765   2.365   1_455  S
O1313      H1318   0.966       .  S
H1319      O2750   0.990       .  S
H1321      O2769   0.990   1_455  S
H1324      O2747   0.990   1_455  S
H1325      O2746   0.990   1_455  S
O1331     Zr1343   2.447       .  S
O1331      C1333   1.289       .  A
O1332      C1333   1.286       .  A
O1334      C1336   1.288       .  A
O1335     Zr1370   2.422       .  S
O1335      C1336   1.286       .  A
O1337     Zr1346   2.442       .  S
O1337      C1339   1.288       .  A
O1338     Zr1369   2.418       .  S
O1338      C1339   1.286       .  A
O1340      C1342   1.288       .  A
O1341      C1342   1.287       .  A
Zr1343     O1344   2.434       .  S
Zr1343     O1375   2.369       .  S
O1344      H1387   0.990       .  S
Zr1346     O1347   2.435       .  S
Zr1346     O1349   2.374       .  S
Zr1346     O1374   2.370       .  S
O1347      H1391   0.990       .  S
O1349     Zr1369   2.382       .  S
O1350     Zr1370   2.384       .  S
O1350      H1377   0.966       .  S
O1351      C1353   1.288       .  A
O1352      C1353   1.286       .  A
O1354     Zr1366   2.442       .  S
O1354      C1356   1.288       .  A
O1355     Zr1369   2.428       .  S
O1355      C1356   1.287       .  A
O1357      C1359   1.287       .  A
O1358     Zr1370   2.423       .  S
O1358      C1359   1.286       .  A
O1360     Zr1363   2.440       .  S
O1360      C1362   1.288       .  A
O1361      C1362   1.287       .  A
Zr1363     O1364   2.435       .  S
Zr1363     O1365   2.434       .  S
Zr1363     O1375   2.368       .  S
O1364      H1389   0.990       .  S
Zr1366     O1367   2.434       .  S
Zr1366     O1368   2.436       .  S
Zr1366     O1372   2.375       .  S
Zr1366     O1374   2.366       .  S
O1367      H1383   0.990       .  S
O1368      H1392   0.990   1_565  S
Zr1369     O1372   2.379       .  S
Zr1369     O1374   2.383       .  S
Zr1370     O1371   2.383       .  S
Zr1370     O1376   2.381       .  S
O1371      H1379   0.966       .  S
O1374      H1378   0.966       .  S
O1375      H1380   0.966       .  S
C1393      C1394   1.402       .  A
C1393      C1398   1.414       .  A
C1394      C1395   1.394       .  A
C1394      H1403   1.084       .  S
C1395      C1396   1.414       .  A
C1395      S1399   1.802       .  S
C1396      C1397   1.405       .  A
C1397      C1398   1.402       .  A
C1397      H1404   1.084       .  S
C1398      S1400   1.804       .  S
S1399      H1402   1.407       .  S
S1400      H1401   1.406       .  S
C1405      C1406   1.403       .  A
C1405      C1410   1.410       .  A
C1406      C1407   1.403       .  A
C1406      H1415   1.084       .  S
C1407      C1408   1.413       .  A
C1407      S1411   1.803       .  S
C1408      C1409   1.400       .  A
C1409      C1410   1.395       .  A
C1409      H1416   1.084       .  S
C1410      S1412   1.800       .  S
S1411      H1414   1.405       .  S
S1412      H1413   1.404       .  S
C1417      C1418   1.407       .  A
C1417      C1422   1.418       .  A
C1418      C1419   1.404       .  A
C1418      H1427   1.084       .  S
C1419      C1420   1.417       .  A
C1419      S1423   1.804       .  S
C1420      C1421   1.403       .  A
C1421      C1422   1.393       .  A
C1421      H1428   1.084       .  S
C1422      S1424   1.802       .  S
S1423      H1426   1.407       .  S
S1424      H1425   1.406       .  S
C1429      C1430   1.402       .  A
C1429      C1434   1.412       .  A
C1430      C1431   1.397       .  A
C1430      H1439   1.084       .  S
C1431      C1432   1.413       .  A
C1431      S1435   1.805       .  S
C1432      C1433   1.403       .  A
C1433      C1434   1.401       .  A
C1433      H1440   1.084       .  S
C1434      S1436   1.804       .  S
S1435      H1438   1.406       .  S
S1436      H1437   1.406       .  S
C1441      C1442   1.404       .  A
C1441      C1446   1.416       .  A
C1442      C1443   1.397       .  A
C1442      H1451   1.084       .  S
C1443      C1444   1.416       .  A
C1443      S1447   1.806       .  S
C1444      C1445   1.405       .  A
C1445      C1446   1.401       .  A
C1445      H1452   1.084       .  S
C1446      S1448   1.804       .  S
S1447      H1450   1.406       .  S
S1448      H1449   1.406       .  S
C1453      C1454   1.405       .  A
C1453      C1458   1.416       .  A
C1454      C1455   1.402       .  A
C1454      H1463   1.083       .  S
C1455      C1456   1.415       .  A
C1455      S1459   1.808       .  S
C1456      C1457   1.405       .  A
C1457      C1458   1.401       .  A
C1457      H1464   1.083       .  S
C1458      S1460   1.811       .  S
S1459      H1462   1.407       .  S
S1460      H1461   1.407       .  S
C1465      C1466   1.406       .  A
C1465      C1470   1.405       .  A
C1465      C1819   1.488       .  S
C1466      C1467   1.402       .  A
C1466      H1471   1.084       .  S
C1467      C1468   1.401       .  A
C1467      C1575   1.469       .  S
C1468      C1469   1.402       .  A
C1468      H1472   1.084       .  S
C1469      C1470   1.403       .  A
C1469      C1705   1.470       .  S
C1470      H1473   1.083       .  S
C1474      C1475   1.408       .  A
C1474      C1479   1.404       .  A
C1474      C1822   1.489       .  S
C1475      C1476   1.403       .  A
C1475      H1480   1.084       .  S
C1476      C1477   1.402       .  A
C1476      C1699   1.473       .  S
C1477      C1478   1.401       .  A
C1477      H1481   1.084       .  S
C1478      C1479   1.401       .  A
C1478      C1581   1.468       .  S
C1479      H1482   1.083       .  S
C1483      C1484   1.404       .  A
C1483      C1488   1.405       .  A
C1483      C1807   1.485       .  S
C1484      C1485   1.403       .  A
C1484      H1489   1.084       .  S
C1485      C1486   1.403       .  A
C1485      C1728   1.472       .  S
C1486      C1487   1.404       .  A
C1486      H1490   1.084       .  S
C1487      C1488   1.404       .  A
C1487      C1637   1.474       .  S
C1488      H1491   1.084       .  S
C1492      C1493   1.404       .  A
C1492      C1497   1.405       .  A
C1492      C1810   1.485       .  S
C1493      C1494   1.402       .  A
C1493      H1498   1.084       .  S
C1494      C1495   1.404       .  A
C1494      C1643   1.473       .  S
C1495      C1496   1.403       .  A
C1495      H1499   1.084       .  S
C1496      C1497   1.404       .  A
C1496      C1722   1.474       .  S
C1497      H1500   1.084       .  S
C1501      C1502   1.402       .  A
C1501      C1506   1.401       .  A
C1501      C1795   1.475       .  S
C1502      C1503   1.405       .  A
C1502      H1507   1.084       .  S
C1503      C1504   1.403       .  A
C1503      C1660   1.472       .  S
C1504      C1505   1.403       .  A
C1504      H1508   1.084       .  S
C1505      C1506   1.402       .  A
C1505      C1604   1.470       .  S
C1506      H1509   1.084       .  S
C1510      C1511   1.401       .  A
C1510      C1515   1.402       .  A
C1510      C1798   1.475       .  S
C1511      C1512   1.403       .  A
C1511      H1516   1.084       .  S
C1512      C1513   1.402       .  A
C1512      C1666   1.470       .  S
C1513      C1514   1.403       .  A
C1513      H1517   1.084       .  S
C1514      C1515   1.403       .  A
C1514      C1598   1.470       .  S
C1515      H1518   1.084       .  S
C1519      C1520   1.402       .  A
C1519      C1524   1.407       .  A
C1519      C1783   1.491       .  S
C1520      C1521   1.402       .  A
C1520      H1525   1.083       .  S
C1521      C1522   1.401       .  A
C1521      C1657   1.472       .  S
C1522      C1523   1.404       .  A
C1522      H1526   1.084       .  S
C1523      C1524   1.406       .  A
C1523      C1708   1.473       .  S
C1524      H1527   1.084       .  S
C1528      C1529   1.405       .  A
C1528      C1533   1.406       .  A
C1528      C1786   1.491       .  S
C1529      C1530   1.402       .  A
C1529      H1534   1.084       .  S
C1530      C1531   1.402       .  A
C1530      C1663   1.474       .  S
C1531      C1532   1.403       .  A
C1531      H1535   1.084       .  S
C1532      C1533   1.405       .  A
C1532      C1702   1.474       .  S
C1533      H1536   1.083       .  S
C1537      C1538   1.402       .  A
C1537      C1542   1.401       .  A
C1537      C1774   1.474       .  S
C1538      C1539   1.403       .  A
C1538      H1543   1.084       .  S
C1539      C1540   1.406       .  A
C1539      C1640   1.476       .  S
C1540      C1541   1.406       .  A
C1540      H1544   1.084       .  S
C1541      C1542   1.404       .  A
C1541      C1584   1.474       .  S
C1542      H1545   1.084       .  S
C1546      C1547   1.399       .  A
C1546      C1551   1.403       .  A
C1546      C1771   1.475       .  S
C1547      C1548   1.403       .  A
C1547      H1552   1.084       .  S
C1548      C1549   1.406       .  A
C1548      C1578   1.474       .  S
C1549      C1550   1.406       .  A
C1549      H1553   1.084       .  S
C1550      C1551   1.404       .  A
C1550      C1646   1.477       .  S
C1551      H1554   1.084       .  S
C1555      C1556   1.402       .  A
C1555      C1560   1.403       .  A
C1555      C1762   1.481       .  S
C1556      C1557   1.401       .  A
C1556      H1561   1.084       .  S
C1557      C1558   1.403       .  A
C1557      C1601   1.472       .  S
C1558      C1559   1.405       .  A
C1558      H1562   1.084       .  S
C1559      C1560   1.404       .  A
C1559      C1719   1.473       .  S
C1560      H1563   1.084       .  S
C1564      C1565   1.403       .  A
C1564      C1569   1.402       .  A
C1564      C1759   1.481       .  S
C1565      C1566   1.404       .  A
C1565      H1570   1.084       .  S
C1566      C1567   1.404       .  A
C1566      C1725   1.473       .  S
C1567      C1568   1.403       .  A
C1567      H1571   1.084       .  S
C1568      C1569   1.401       .  A
C1568      C1595   1.472       .  S
C1569      H1572   1.084       .  S
O1573     Zr1585   2.445       .  S
O1573      C1575   1.288       .  A
O1574     Zr1611   2.417       .  S
O1574      C1575   1.285       .  A
O1576     Zr1588   2.441       .  S
O1576      C1578   1.288       .  A
O1577     Zr1978   2.424       .  S
O1577      C1578   1.286       .  A
O1579     Zr1588   2.443       .  S
O1579      C1581   1.288       .  A
O1580     Zr1977   2.416       .  S
O1580      C1581   1.284       .  A
O1582     Zr1585   2.442       .  S
O1582      C1584   1.288       .  A
O1583     Zr1612   2.424       .  S
O1583      C1584   1.286       .  A
Zr1585     O1586   2.434       .  S
Zr1585     O1587   2.436       .  S
Zr1585     O1591   2.375       .  S
Zr1585     O1592   2.373       .  S
Zr1585     O1615   2.371       .  S
Zr1585     O1617   2.367       .  S
O1586      H1629   0.990       .  S
O1587      H1628   0.990       .  S
O1587      H1632   0.990       .  S
Zr1588     O1589   2.435       .  S
Zr1588     O1590   2.435       .  S
Zr1588     O1958   2.372       .  S
Zr1588     O1957   2.374       .  S
Zr1588     O1616   2.366       .  S
Zr1588     O1618   2.372       .  S
O1589      H1630   0.990       .  S
O1589      H1633   0.990       .  S
O1590      H1623   0.990       .  S
O1591     Zr1954   2.374   1_554  S
O1591     Zr1611   2.380       .  S
O1592     Zr1954   2.372   1_554  S
O1592     Zr1612   2.383       .  S
O1592      H1619   0.966       .  S
O1593     Zr1605   2.440       .  S
O1593      C1595   1.288       .  A
O1594     Zr1612   2.420       .  S
O1594      C1595   1.286       .  A
O1596     Zr1608   2.445       .  S
O1596      C1598   1.289       .  A
O1597     Zr1977   2.416       .  S
O1597      C1598   1.285       .  A
O1599     Zr1608   2.439       .  S
O1599      C1601   1.288       .  A
O1600     Zr1978   2.422       .  S
O1600      C1601   1.286       .  A
O1602     Zr1605   2.444       .  S
O1602      C1604   1.289       .  A
O1603     Zr1611   2.416       .  S
O1603      C1604   1.285       .  A
Zr1605     O1606   2.435       .  S
Zr1605     O1607   2.434       .  S
Zr1605     O1613   2.372       .  S
Zr1605     O1614   2.374       .  S
Zr1605     O1617   2.367       .  S
Zr1605     O1615   2.372       .  S
O1606      H1626   0.990       .  S
O1606      H1631   0.990       .  S
O1607      H1627   0.990       .  S
Zr1608     O1609   2.434       .  S
Zr1608     O1610   2.435       .  S
Zr1608     O1980   2.376       .  S
Zr1608     O1979   2.373       .  S
Zr1608     O1618   2.372       .  S
Zr1608     O1616   2.364       .  S
O1609      H1625   0.990       .  S
O1610      H1624   0.990       .  S
O1610      H1634   0.990       .  S
Zr1611     O1946   2.416   1_554  S
Zr1611     O1963   2.416   1_554  S
Zr1611     O1614   2.379       .  S
Zr1611     O1982   2.381   1_554  S
Zr1611     O1617   2.382       .  S
Zr1612     O1943   2.424   1_554  S
Zr1612     O1966   2.422   1_554  S
Zr1612     O1613   2.385       .  S
Zr1612     O1615   2.382       .  S
Zr1612     O1984   2.382   1_554  S
O1613     Zr1974   2.373   1_554  S
O1613      H1621   0.966       .  S
O1614     Zr1974   2.376   1_554  S
O1616     Zr1977   2.381       .  S
O1616      H1620   0.966       .  S
O1617      H1622   0.966       .  S
O1618     Zr1978   2.382       .  S
O1635      C1637   1.290       .  A
O1636     Zr2039   2.419       .  S
O1636      C1637   1.286       .  A
O1638     Zr1650   2.447       .  S
O1638      C1640   1.289       .  A
O1639     Zr1674   2.424       .  S
O1639      C1640   1.286       .  A
O1641      C1643   1.290       .  A
O1642     Zr1673   2.416       .  S
O1642      C1643   1.285       .  A
O1644     Zr1647   2.449       .  S
O1644      C1646   1.290       .  A
O1645     Zr2040   2.425       .  S
O1645      C1646   1.287       .  A
Zr1647     O1648   2.434       .  S
Zr1647     O1649   2.436       .  S
Zr1647     O2020   2.373       .  S
Zr1647     O1677   2.372       .  S
O1649      H1694   0.990       .  S
Zr1650     O1651   2.435       .  S
Zr1650     O1652   2.434       .  S
Zr1650     O1654   2.375       .  S
Zr1650     O1680   2.373       .  S
O1651      H1692   0.990       .  S
O1651      H1695   0.990       .  S
O1653     Zr1673   2.383       .  S
O1654     Zr2013   2.373   1_554  S
O1654     Zr1674   2.386       .  S
O1654      H1681   0.966       .  S
O1655     Zr1667   2.428       .  S
O1655      C1657   1.286       .  A
O1656     Zr2040   2.428       .  S
O1656      C1657   1.287       .  A
O1658      C1660   1.287       .  A
O1659     Zr1673   2.428       .  S
O1659      C1660   1.287       .  A
O1661     Zr1670   2.437       .  S
O1661      C1663   1.287       .  A
O1662     Zr1674   2.423       .  S
O1662      C1663   1.286       .  A
O1664      C1666   1.286       .  A
O1665     Zr2039   2.426       .  S
O1665      C1666   1.287       .  A
Zr1667     O1668   2.435       .  S
Zr1667     O1669   2.434       .  S
Zr1667     O2041   2.371       .  S
Zr1667     O1677   2.372       .  S
O1668      H1688   0.990       .  S
O1668      H1693   0.990       .  S
O1669      H1689   0.990       .  S
Zr1670     O1671   2.434       .  S
Zr1670     O1672   2.435       .  S
Zr1670     O1675   2.369       .  S
Zr1670     O1680   2.369       .  S
O1672      H1686   0.990       .  S
O1672      H1696   0.990       .  S
Zr1673     O2002   2.419   1_554  S
Zr1673     O2031   2.426   1_554  S
Zr1673     O1676   2.377       .  S
Zr1673     O1678   2.383       .  S
Zr1673     O2045   2.382   1_554  S
Zr1674     O2011   2.425   1_554  S
Zr1674     O2022   2.428   1_554  S
Zr1674     O1675   2.382       .  S
Zr1674     O2043   2.381   1_554  S
Zr1674     O1680   2.383       .  S
O1675     Zr2033   2.371   1_554  S
O1675      H1683   0.966       .  S
O1677     Zr2040   2.381       .  S
O1678      H1682   0.966       .  S
O1679     Zr2039   2.382       .  S
O1679      H1684   0.966       .  S
O1697     Zr1709   2.447       .  S
O1697      C1699   1.289       .  A
O1698     Zr2101   2.418       .  S
O1698      C1699   1.286       .  A
O1700     Zr2444   2.441   1_545  S
O1700      C1702   1.288       .  A
O1701     Zr1736   2.422       .  S
O1701      C1702   1.286       .  A
O1703     Zr1712   2.442       .  S
O1703      C1705   1.288       .  A
O1704     Zr1735   2.418       .  S
O1704      C1705   1.286       .  A
O1706     Zr2441   2.441   1_545  S
O1706      C1708   1.288       .  A
O1707     Zr2102   2.424       .  S
O1707      C1708   1.287       .  A
Zr1709     O2438   2.441       .  S
Zr1709     O1710   2.434       .  S
Zr1709     O2443   2.436       .  S
Zr1709     O2081   2.374       .  S
Zr1709     O2814   2.375       .  S
Zr1709     O2471   2.371       .  S
Zr1709     O1741   2.369       .  S
O1710      H1753   0.990       .  S
O1711     Zr2441   2.436       .  S
O1711      H2484   0.990       .  S
O1711      H2488   0.990       .  S
Zr1712     O2432   2.441       .  S
Zr1712     O1713   2.435       .  S
Zr1712     O2446   2.435       .  S
Zr1712     O2448   2.373       .  S
Zr1712     O1715   2.374       .  S
Zr1712     O1740   2.370       .  S
Zr1712     O2474   2.370       .  S
O1713      H2486   0.990       .  S
O1713      H1757   0.990       .  S
O1714     Zr2444   2.435       .  S
O1714      H2479   0.990       .  S
O1715     Zr2075   2.374   1_554  S
O1715     Zr1735   2.382       .  S
O1716     Zr2807   2.375   1_544  S
O1716     Zr2444   2.373   1_545  S
O1716     Zr1736   2.384       .  S
O1716      H1743   0.966       .  S
O1717     Zr2461   2.443   1_545  S
O1717      C1719   1.288       .  A
O1718     Zr2102   2.420       .  S
O1718      C1719   1.286       .  A
O1720     Zr1732   2.442       .  S
O1720      C1722   1.288       .  A
O1721     Zr1735   2.428       .  S
O1721      C1722   1.287       .  A
O1723     Zr2464   2.439   1_545  S
O1723      C1725   1.287       .  A
O1724     Zr1736   2.423       .  S
O1724      C1725   1.286       .  A
O1726     Zr1729   2.440       .  S
O1726      C1728   1.288       .  A
O1727     Zr2101   2.426       .  S
O1727      C1728   1.287       .  A
Zr1729     O2449   2.443       .  S
Zr1729     O1730   2.435       .  S
Zr1729     O1731   2.434       .  S
Zr1729     O2835   2.373       .  S
Zr1729     O2104   2.375       .  S
Zr1729     O1741   2.368       .  S
Zr1729     O2471   2.369       .  S
O1730      H2482   0.990       .  S
O1730      H1755   0.990       .  S
O1731      H2483   0.990       .  S
Zr1732     O2455   2.439       .  S
Zr1732     O1733   2.434       .  S
Zr1732     O1734   2.436       .  S
Zr1732     O1738   2.375       .  S
Zr1732     O2469   2.374       .  S
Zr1732     O2474   2.370       .  S
Zr1732     O1740   2.366       .  S
O1733      H1749   0.990       .  S
O1734      H2480   0.990       .  S
O1734      H1758   0.990       .  S
Zr1735     O2064   2.418   1_554  S
Zr1735     O2093   2.426   1_554  S
Zr1735     O1738   2.379       .  S
Zr1735     O1740   2.383       .  S
Zr1735     O2107   2.384   1_554  S
Zr1736     O2073   2.424   1_554  S
Zr1736     O2084   2.420   1_554  S
Zr1736     O1737   2.383       .  S
Zr1736     O2105   2.381   1_554  S
Zr1736     O1742   2.381       .  S
O1737     Zr2827   2.373   1_544  S
O1737     Zr2464   2.374   1_545  S
O1737      H1745   0.966       .  S
O1738     Zr2095   2.375   1_554  S
O1739     Zr2441   2.371   1_545  S
O1739     Zr2461   2.369   1_545  S
O1739     Zr2102   2.381       .  S
O1740      H1744   0.966       .  S
O1741     Zr2101   2.384       .  S
O1741      H1746   0.966       .  S
O1742     Zr2444   2.370   1_545  S
O1742     Zr2464   2.370   1_545  S
H1747      O2446   0.990       .  S
H1748      O2466   0.990   1_545  S
H1750      O2462   0.990   1_545  S
H1751      O2463   0.990   1_545  S
H1752      O2443   0.990       .  S
H1754      O2445   0.990   1_545  S
H1756      O2443   0.990       .  S
C1759      C1760   1.402       .  A
C1759      C1764   1.414       .  A
C1760      C1761   1.394       .  A
C1760      H1769   1.084       .  S
C1761      C1762   1.414       .  A
C1761      S1765   1.802       .  S
C1762      C1763   1.405       .  A
C1763      C1764   1.402       .  A
C1763      H1770   1.084       .  S
C1764      S1766   1.804       .  S
S1765      H1768   1.407       .  S
S1766      H1767   1.406       .  S
C1771      C1772   1.403       .  A
C1771      C1776   1.410       .  A
C1772      C1773   1.403       .  A
C1772      H1781   1.084       .  S
C1773      C1774   1.413       .  A
C1773      S1777   1.803       .  S
C1774      C1775   1.400       .  A
C1775      C1776   1.395       .  A
C1775      H1782   1.084       .  S
C1776      S1778   1.800       .  S
S1777      H1780   1.405       .  S
S1778      H1779   1.404       .  S
C1783      C1784   1.407       .  A
C1783      C1788   1.418       .  A
C1784      C1785   1.404       .  A
C1784      H1793   1.084       .  S
C1785      C1786   1.417       .  A
C1785      S1789   1.804       .  S
C1786      C1787   1.403       .  A
C1787      C1788   1.393       .  A
C1787      H1794   1.084       .  S
C1788      S1790   1.802       .  S
S1789      H1792   1.407       .  S
S1790      H1791   1.406       .  S
C1795      C1796   1.402       .  A
C1795      C1800   1.412       .  A
C1796      C1797   1.397       .  A
C1796      H1805   1.084       .  S
C1797      C1798   1.413       .  A
C1797      S1801   1.805       .  S
C1798      C1799   1.403       .  A
C1799      C1800   1.401       .  A
C1799      H1806   1.084       .  S
C1800      S1802   1.804       .  S
S1801      H1804   1.406       .  S
S1802      H1803   1.406       .  S
C1807      C1808   1.404       .  A
C1807      C1812   1.416       .  A
C1808      C1809   1.397       .  A
C1808      H1817   1.084       .  S
C1809      C1810   1.416       .  A
C1809      S1813   1.806       .  S
C1810      C1811   1.405       .  A
C1811      C1812   1.401       .  A
C1811      H1818   1.084       .  S
C1812      S1814   1.804       .  S
S1813      H1816   1.406       .  S
S1814      H1815   1.406       .  S
C1819      C1820   1.405       .  A
C1819      C1824   1.416       .  A
C1820      C1821   1.402       .  A
C1820      H1829   1.083       .  S
C1821      C1822   1.415       .  A
C1821      S1825   1.808       .  S
C1822      C1823   1.405       .  A
C1823      C1824   1.401       .  A
C1823      H1830   1.083       .  S
C1824      S1826   1.811       .  S
S1825      H1828   1.407       .  S
S1826      H1827   1.407       .  S
C1831      C1832   1.406       .  A
C1831      C1836   1.405       .  A
C1831      C2185   1.488       .  S
C1832      C1833   1.402       .  A
C1832      H1837   1.084       .  S
C1833      C1834   1.401       .  A
C1833      C1941   1.469       .  S
C1834      C1835   1.402       .  A
C1834      H1838   1.084       .  S
C1835      C1836   1.403       .  A
C1835      C2071   1.470       .  S
C1836      H1839   1.083       .  S
C1840      C1841   1.408       .  A
C1840      C1845   1.404       .  A
C1840      C2188   1.489       .  S
C1841      C1842   1.403       .  A
C1841      H1846   1.084       .  S
C1842      C1843   1.402       .  A
C1842      C2065   1.473       .  S
C1843      C1844   1.401       .  A
C1843      H1847   1.084       .  S
C1844      C1845   1.401       .  A
C1844      C1947   1.468       .  S
C1845      H1848   1.083       .  S
C1849      C1850   1.404       .  A
C1849      C1854   1.405       .  A
C1849      C2173   1.485       .  S
C1850      C1851   1.403       .  A
C1850      H1855   1.084       .  S
C1851      C1852   1.403       .  A
C1851      C2094   1.472       .  S
C1852      C1853   1.404       .  A
C1852      H1856   1.084       .  S
C1853      C1854   1.404       .  A
C1853      C2003   1.474       .  S
C1854      H1857   1.084       .  S
C1858      C1859   1.404       .  A
C1858      C1863   1.405       .  A
C1858      C2176   1.485       .  S
C1859      C1860   1.402       .  A
C1859      H1864   1.084       .  S
C1860      C1861   1.404       .  A
C1860      C2009   1.473       .  S
C1861      C1862   1.403       .  A
C1861      H1865   1.084       .  S
C1862      C1863   1.404       .  A
C1862      C2088   1.474       .  S
C1863      H1866   1.084       .  S
C1867      C1868   1.402       .  A
C1867      C1872   1.401       .  A
C1867      C2161   1.475       .  S
C1868      C1869   1.405       .  A
C1868      H1873   1.084       .  S
C1869      C1870   1.403       .  A
C1869      C2026   1.472       .  S
C1870      C1871   1.403       .  A
C1870      H1874   1.084       .  S
C1871      C1872   1.402       .  A
C1871      C1970   1.470       .  S
C1872      H1875   1.084       .  S
C1876      C1877   1.401       .  A
C1876      C1881   1.402       .  A
C1876      C2164   1.475       .  S
C1877      C1878   1.403       .  A
C1877      H1882   1.084       .  S
C1878      C1879   1.402       .  A
C1878      C2032   1.470       .  S
C1879      C1880   1.403       .  A
C1879      H1883   1.084       .  S
C1880      C1881   1.403       .  A
C1880      C1964   1.470       .  S
C1881      H1884   1.084       .  S
C1885      C1886   1.402       .  A
C1885      C1890   1.407       .  A
C1885      C2149   1.491       .  S
C1886      C1887   1.402       .  A
C1886      H1891   1.083       .  S
C1887      C1888   1.401       .  A
C1887      C2023   1.472       .  S
C1888      C1889   1.404       .  A
C1888      H1892   1.084       .  S
C1889      C1890   1.406       .  A
C1889      C2074   1.473       .  S
C1890      H1893   1.084       .  S
C1894      C1895   1.405       .  A
C1894      C1899   1.406       .  A
C1894      C2152   1.491       .  S
C1895      C1896   1.402       .  A
C1895      H1900   1.084       .  S
C1896      C1897   1.402       .  A
C1896      C2029   1.474       .  S
C1897      C1898   1.403       .  A
C1897      H1901   1.084       .  S
C1898      C1899   1.405       .  A
C1898      C2068   1.474       .  S
C1899      H1902   1.083       .  S
C1903      C1904   1.402       .  A
C1903      C1908   1.401       .  A
C1903      C2140   1.474       .  S
C1904      C1905   1.403       .  A
C1904      H1909   1.084       .  S
C1905      C1906   1.406       .  A
C1905      C2006   1.476       .  S
C1906      C1907   1.406       .  A
C1906      H1910   1.084       .  S
C1907      C1908   1.404       .  A
C1907      C1950   1.474       .  S
C1908      H1911   1.084       .  S
C1912      C1913   1.399       .  A
C1912      C1917   1.403       .  A
C1912      C2137   1.475       .  S
C1913      C1914   1.403       .  A
C1913      H1918   1.084       .  S
C1914      C1915   1.406       .  A
C1914      C1944   1.474       .  S
C1915      C1916   1.406       .  A
C1915      H1919   1.084       .  S
C1916      C1917   1.404       .  A
C1916      C2012   1.477       .  S
C1917      H1920   1.084       .  S
C1921      C1922   1.402       .  A
C1921      C1926   1.403       .  A
C1921      C2128   1.481       .  S
C1922      C1923   1.401       .  A
C1922      H1927   1.084       .  S
C1923      C1924   1.403       .  A
C1923      C1967   1.472       .  S
C1924      C1925   1.405       .  A
C1924      H1928   1.084       .  S
C1925      C1926   1.404       .  A
C1925      C2085   1.473       .  S
C1926      H1929   1.084       .  S
C1930      C1931   1.403       .  A
C1930      C1935   1.402       .  A
C1930      C2125   1.481       .  S
C1931      C1932   1.404       .  A
C1931      H1936   1.084       .  S
C1932      C1933   1.404       .  A
C1932      C2091   1.473       .  S
C1933      C1934   1.403       .  A
C1933      H1937   1.084       .  S
C1934      C1935   1.401       .  A
C1934      C1961   1.472       .  S
C1935      H1938   1.084       .  S
O1939     Zr1951   2.445       .  S
O1939      C1941   1.288       .  A
O1940     Zr1977   2.417       .  S
O1940      C1941   1.285       .  A
O1942     Zr1954   2.441       .  S
O1942      C1944   1.288       .  A
O1943      C1944   1.286       .  A
O1945     Zr1954   2.443       .  S
O1945      C1947   1.288       .  A
O1946      C1947   1.284       .  A
O1948     Zr1951   2.442       .  S
O1948      C1950   1.288       .  A
O1949     Zr1978   2.424       .  S
O1949      C1950   1.286       .  A
Zr1951     O1952   2.434       .  S
Zr1951     O1953   2.436       .  S
Zr1951     O1957   2.375       .  S
Zr1951     O1958   2.373       .  S
Zr1951     O1981   2.371       .  S
Zr1951     O1983   2.367       .  S
O1952      H1995   0.990       .  S
O1953      H1994   0.990       .  S
O1953      H1998   0.990       .  S
Zr1954     O1955   2.435       .  S
Zr1954     O1956   2.435       .  S
Zr1954     O1982   2.366       .  S
Zr1954     O1984   2.372       .  S
O1955      H1996   0.990       .  S
O1955      H1999   0.990       .  S
O1956      H1989   0.990       .  S
O1957     Zr1977   2.380       .  S
O1958     Zr1978   2.383       .  S
O1958      H1985   0.966       .  S
O1959     Zr1971   2.440       .  S
O1959      C1961   1.288       .  A
O1960     Zr1978   2.420       .  S
O1960      C1961   1.286       .  A
O1962     Zr1974   2.445       .  S
O1962      C1964   1.289       .  A
O1963      C1964   1.285       .  A
O1965     Zr1974   2.439       .  S
O1965      C1967   1.288       .  A
O1966      C1967   1.286       .  A
O1968     Zr1971   2.444       .  S
O1968      C1970   1.289       .  A
O1969     Zr1977   2.416       .  S
O1969      C1970   1.285       .  A
Zr1971     O1972   2.435       .  S
Zr1971     O1973   2.434       .  S
Zr1971     O1979   2.372       .  S
Zr1971     O1980   2.374       .  S
Zr1971     O1983   2.367       .  S
Zr1971     O1981   2.372       .  S
O1972      H1992   0.990       .  S
O1972      H1997   0.990       .  S
O1973      H1993   0.990       .  S
Zr1974     O1975   2.434       .  S
Zr1974     O1976   2.435       .  S
Zr1974     O1984   2.372       .  S
Zr1974     O1982   2.364       .  S
O1975      H1991   0.990       .  S
O1976      H1990   0.990       .  S
O1976      H2000   0.990       .  S
Zr1977     O1980   2.379       .  S
Zr1977     O1983   2.382       .  S
Zr1978     O1979   2.385       .  S
Zr1978     O1981   2.382       .  S
O1979      H1987   0.966       .  S
O1982      H1986   0.966       .  S
O1983      H1988   0.966       .  S
O2001      C2003   1.290       .  A
O2002      C2003   1.286       .  A
O2004     Zr2016   2.447       .  S
O2004      C2006   1.289       .  A
O2005     Zr2040   2.424       .  S
O2005      C2006   1.286       .  A
O2007      C2009   1.290       .  A
O2008     Zr2039   2.416       .  S
O2008      C2009   1.285       .  A
O2010     Zr2013   2.449       .  S
O2010      C2012   1.290       .  A
O2011      C2012   1.287       .  A
Zr2013     O2014   2.434       .  S
Zr2013     O2015   2.436       .  S
Zr2013     O2043   2.372       .  S
O2015      H2060   0.990       .  S
Zr2016     O2017   2.435       .  S
Zr2016     O2018   2.434       .  S
Zr2016     O2020   2.375       .  S
Zr2016     O2046   2.373       .  S
O2017      H2058   0.990       .  S
O2017      H2061   0.990       .  S
O2019     Zr2039   2.383       .  S
O2020     Zr2040   2.386       .  S
O2020      H2047   0.966       .  S
O2021     Zr2033   2.428       .  S
O2021      C2023   1.286       .  A
O2022      C2023   1.287       .  A
O2024      C2026   1.287       .  A
O2025     Zr2039   2.428       .  S
O2025      C2026   1.287       .  A
O2027     Zr2036   2.437       .  S
O2027      C2029   1.287       .  A
O2028     Zr2040   2.423       .  S
O2028      C2029   1.286       .  A
O2030      C2032   1.286       .  A
O2031      C2032   1.287       .  A
Zr2033     O2034   2.435       .  S
Zr2033     O2035   2.434       .  S
Zr2033     O2043   2.372       .  S
O2034      H2054   0.990       .  S
O2034      H2059   0.990       .  S
O2035      H2055   0.990       .  S
Zr2036     O2037   2.434       .  S
Zr2036     O2038   2.435       .  S
Zr2036     O2041   2.369       .  S
Zr2036     O2046   2.369       .  S
O2038      H2052   0.990       .  S
O2038      H2062   0.990       .  S
Zr2039     O2042   2.377       .  S
Zr2039     O2044   2.383       .  S
Zr2040     O2041   2.382       .  S
Zr2040     O2046   2.383       .  S
O2041      H2049   0.966       .  S
O2044      H2048   0.966       .  S
O2045      H2050   0.966       .  S
O2063     Zr2075   2.447       .  S
O2063      C2065   1.289       .  A
O2064      C2065   1.286       .  A
O2066     Zr2810   2.441   1_545  S
O2066      C2068   1.288       .  A
O2067     Zr2102   2.422       .  S
O2067      C2068   1.286       .  A
O2069     Zr2078   2.442       .  S
O2069      C2071   1.288       .  A
O2070     Zr2101   2.418       .  S
O2070      C2071   1.286       .  A
O2072     Zr2807   2.441   1_545  S
O2072      C2074   1.288       .  A
O2073      C2074   1.287       .  A
Zr2075     O2804   2.441       .  S
Zr2075     O2076   2.434       .  S
Zr2075     O2809   2.436       .  S
Zr2075     O2448   2.375   1_556  S
Zr2075     O2837   2.371       .  S
Zr2075     O2107   2.369       .  S
O2076      H2119   0.990       .  S
O2077     Zr2807   2.436       .  S
O2077      H2850   0.990       .  S
O2077      H2854   0.990       .  S
Zr2078     O2798   2.441       .  S
Zr2078     O2079   2.435       .  S
Zr2078     O2812   2.435       .  S
Zr2078     O2814   2.373       .  S
Zr2078     O2081   2.374       .  S
Zr2078     O2106   2.370       .  S
Zr2078     O2840   2.370       .  S
O2079      H2852   0.990       .  S
O2079      H2123   0.990       .  S
O2080     Zr2810   2.435       .  S
O2080      H2845   0.990       .  S
O2081     Zr2101   2.382       .  S
O2082     Zr2441   2.375   1_545  S
O2082     Zr2810   2.373   1_545  S
O2082     Zr2102   2.384       .  S
O2082      H2109   0.966       .  S
O2083     Zr2827   2.443   1_545  S
O2083      C2085   1.288       .  A
O2084      C2085   1.286       .  A
O2086     Zr2098   2.442       .  S
O2086      C2088   1.288       .  A
O2087     Zr2101   2.428       .  S
O2087      C2088   1.287       .  A
O2089     Zr2830   2.439   1_545  S
O2089      C2091   1.287       .  A
O2090     Zr2102   2.423       .  S
O2090      C2091   1.286       .  A
O2092     Zr2095   2.440       .  S
O2092      C2094   1.288       .  A
O2093      C2094   1.287       .  A
Zr2095     O2815   2.443       .  S
Zr2095     O2096   2.435       .  S
Zr2095     O2097   2.434       .  S
Zr2095     O2469   2.373   1_556  S
Zr2095     O2107   2.368       .  S
Zr2095     O2837   2.369       .  S
O2096      H2848   0.990       .  S
O2096      H2121   0.990       .  S
O2097      H2849   0.990       .  S
Zr2098     O2821   2.439       .  S
Zr2098     O2099   2.434       .  S
Zr2098     O2100   2.436       .  S
Zr2098     O2104   2.375       .  S
Zr2098     O2835   2.374       .  S
Zr2098     O2840   2.370       .  S
Zr2098     O2106   2.366       .  S
O2099      H2115   0.990       .  S
O2100      H2846   0.990       .  S
O2100      H2124   0.990       .  S
Zr2101     O2104   2.379       .  S
Zr2101     O2106   2.383       .  S
Zr2102     O2103   2.383       .  S
Zr2102     O2108   2.381       .  S
O2103     Zr2461   2.373   1_545  S
O2103     Zr2830   2.374   1_545  S
O2103      H2111   0.966       .  S
O2105     Zr2807   2.371   1_545  S
O2105     Zr2827   2.369   1_545  S
O2106      H2110   0.966       .  S
O2107      H2112   0.966       .  S
O2108     Zr2810   2.370   1_545  S
O2108     Zr2830   2.370   1_545  S
H2113      O2812   0.990       .  S
H2114      O2832   0.990   1_545  S
H2116      O2828   0.990   1_545  S
H2117      O2829   0.990   1_545  S
H2118      O2809   0.990       .  S
H2120      O2811   0.990   1_545  S
H2122      O2809   0.990       .  S
C2125      C2126   1.402       .  A
C2125      C2130   1.414       .  A
C2126      C2127   1.394       .  A
C2126      H2135   1.084       .  S
C2127      C2128   1.414       .  A
C2127      S2131   1.802       .  S
C2128      C2129   1.405       .  A
C2129      C2130   1.402       .  A
C2129      H2136   1.084       .  S
C2130      S2132   1.804       .  S
S2131      H2134   1.407       .  S
S2132      H2133   1.406       .  S
C2137      C2138   1.403       .  A
C2137      C2142   1.410       .  A
C2138      C2139   1.403       .  A
C2138      H2147   1.084       .  S
C2139      C2140   1.413       .  A
C2139      S2143   1.803       .  S
C2140      C2141   1.400       .  A
C2141      C2142   1.395       .  A
C2141      H2148   1.084       .  S
C2142      S2144   1.800       .  S
S2143      H2146   1.405       .  S
S2144      H2145   1.404       .  S
C2149      C2150   1.407       .  A
C2149      C2154   1.418       .  A
C2150      C2151   1.404       .  A
C2150      H2159   1.084       .  S
C2151      C2152   1.417       .  A
C2151      S2155   1.804       .  S
C2152      C2153   1.403       .  A
C2153      C2154   1.393       .  A
C2153      H2160   1.084       .  S
C2154      S2156   1.802       .  S
S2155      H2158   1.407       .  S
S2156      H2157   1.406       .  S
C2161      C2162   1.402       .  A
C2161      C2166   1.412       .  A
C2162      C2163   1.397       .  A
C2162      H2171   1.084       .  S
C2163      C2164   1.413       .  A
C2163      S2167   1.805       .  S
C2164      C2165   1.403       .  A
C2165      C2166   1.401       .  A
C2165      H2172   1.084       .  S
C2166      S2168   1.804       .  S
S2167      H2170   1.406       .  S
S2168      H2169   1.406       .  S
C2173      C2174   1.404       .  A
C2173      C2178   1.416       .  A
C2174      C2175   1.397       .  A
C2174      H2183   1.084       .  S
C2175      C2176   1.416       .  A
C2175      S2179   1.806       .  S
C2176      C2177   1.405       .  A
C2177      C2178   1.401       .  A
C2177      H2184   1.084       .  S
C2178      S2180   1.804       .  S
S2179      H2182   1.406       .  S
S2180      H2181   1.406       .  S
C2185      C2186   1.405       .  A
C2185      C2190   1.416       .  A
C2186      C2187   1.402       .  A
C2186      H2195   1.083       .  S
C2187      C2188   1.415       .  A
C2187      S2191   1.808       .  S
C2188      C2189   1.405       .  A
C2189      C2190   1.401       .  A
C2189      H2196   1.083       .  S
C2190      S2192   1.811       .  S
S2191      H2194   1.407       .  S
S2192      H2193   1.407       .  S
C2197      C2198   1.406       .  A
C2197      C2202   1.405       .  A
C2197      C2551   1.488       .  S
C2198      C2199   1.402       .  A
C2198      H2203   1.084       .  S
C2199      C2200   1.401       .  A
C2199      C2307   1.469       .  S
C2200      C2201   1.402       .  A
C2200      H2204   1.084       .  S
C2201      C2202   1.403       .  A
C2201      C2437   1.470       .  S
C2202      H2205   1.083       .  S
C2206      C2207   1.408       .  A
C2206      C2211   1.404       .  A
C2206      C2554   1.489       .  S
C2207      C2208   1.403       .  A
C2207      H2212   1.084       .  S
C2208      C2209   1.402       .  A
C2208      C2431   1.473       .  S
C2209      C2210   1.401       .  A
C2209      H2213   1.084       .  S
C2210      C2211   1.401       .  A
C2210      C2313   1.468       .  S
C2211      H2214   1.083       .  S
C2215      C2216   1.404       .  A
C2215      C2220   1.405       .  A
C2215      C2539   1.485       .  S
C2216      C2217   1.403       .  A
C2216      H2221   1.084       .  S
C2217      C2218   1.403       .  A
C2217      C2460   1.472       .  S
C2218      C2219   1.404       .  A
C2218      H2222   1.084       .  S
C2219      C2220   1.404       .  A
C2219      C2369   1.474       .  S
C2220      H2223   1.084       .  S
C2224      C2225   1.404       .  A
C2224      C2229   1.405       .  A
C2224      C2542   1.485       .  S
C2225      C2226   1.402       .  A
C2225      H2230   1.084       .  S
C2226      C2227   1.404       .  A
C2226      C2375   1.473       .  S
C2227      C2228   1.403       .  A
C2227      H2231   1.084       .  S
C2228      C2229   1.404       .  A
C2228      C2454   1.474       .  S
C2229      H2232   1.084       .  S
C2233      C2234   1.402       .  A
C2233      C2238   1.401       .  A
C2233      C2527   1.475       .  S
C2234      C2235   1.405       .  A
C2234      H2239   1.084       .  S
C2235      C2236   1.403       .  A
C2235      C2392   1.472       .  S
C2236      C2237   1.403       .  A
C2236      H2240   1.084       .  S
C2237      C2238   1.402       .  A
C2237      C2336   1.470       .  S
C2238      H2241   1.084       .  S
C2242      C2243   1.401       .  A
C2242      C2247   1.402       .  A
C2242      C2530   1.475       .  S
C2243      C2244   1.403       .  A
C2243      H2248   1.084       .  S
C2244      C2245   1.402       .  A
C2244      C2398   1.470       .  S
C2245      C2246   1.403       .  A
C2245      H2249   1.084       .  S
C2246      C2247   1.403       .  A
C2246      C2330   1.470       .  S
C2247      H2250   1.084       .  S
C2251      C2252   1.402       .  A
C2251      C2256   1.407       .  A
C2251      C2515   1.491       .  S
C2252      C2253   1.402       .  A
C2252      H2257   1.083       .  S
C2253      C2254   1.401       .  A
C2253      C2389   1.472       .  S
C2254      C2255   1.404       .  A
C2254      H2258   1.084       .  S
C2255      C2256   1.406       .  A
C2255      C2440   1.473       .  S
C2256      H2259   1.084       .  S
C2260      C2261   1.405       .  A
C2260      C2265   1.406       .  A
C2260      C2518   1.491       .  S
C2261      C2262   1.402       .  A
C2261      H2266   1.084       .  S
C2262      C2263   1.402       .  A
C2262      C2395   1.474       .  S
C2263      C2264   1.403       .  A
C2263      H2267   1.084       .  S
C2264      C2265   1.405       .  A
C2264      C2434   1.474       .  S
C2265      H2268   1.083       .  S
C2269      C2270   1.402       .  A
C2269      C2274   1.401       .  A
C2269      C2506   1.474       .  S
C2270      C2271   1.403       .  A
C2270      H2275   1.084       .  S
C2271      C2272   1.406       .  A
C2271      C2372   1.476       .  S
C2272      C2273   1.406       .  A
C2272      H2276   1.084       .  S
C2273      C2274   1.404       .  A
C2273      C2316   1.474       .  S
C2274      H2277   1.084       .  S
C2278      C2279   1.399       .  A
C2278      C2283   1.403       .  A
C2278      C2503   1.475       .  S
C2279      C2280   1.403       .  A
C2279      H2284   1.084       .  S
C2280      C2281   1.406       .  A
C2280      C2310   1.474       .  S
C2281      C2282   1.406       .  A
C2281      H2285   1.084       .  S
C2282      C2283   1.404       .  A
C2282      C2378   1.477       .  S
C2283      H2286   1.084       .  S
C2287      C2288   1.402       .  A
C2287      C2292   1.403       .  A
C2287      C2494   1.481       .  S
C2288      C2289   1.401       .  A
C2288      H2293   1.084       .  S
C2289      C2290   1.403       .  A
C2289      C2333   1.472       .  S
C2290      C2291   1.405       .  A
C2290      H2294   1.084       .  S
C2291      C2292   1.404       .  A
C2291      C2451   1.473       .  S
C2292      H2295   1.084       .  S
C2296      C2297   1.403       .  A
C2296      C2301   1.402       .  A
C2296      C2491   1.481       .  S
C2297      C2298   1.404       .  A
C2297      H2302   1.084       .  S
C2298      C2299   1.404       .  A
C2298      C2457   1.473       .  S
C2299      C2300   1.403       .  A
C2299      H2303   1.084       .  S
C2300      C2301   1.401       .  A
C2300      C2327   1.472       .  S
C2301      H2304   1.084       .  S
O2305     Zr2317   2.445       .  S
O2305      C2307   1.288       .  A
O2306     Zr2343   2.417       .  S
O2306      C2307   1.285       .  A
O2308     Zr2320   2.441       .  S
O2308      C2310   1.288       .  A
O2309     Zr2710   2.424       .  S
O2309      C2310   1.286       .  A
O2311     Zr2320   2.443       .  S
O2311      C2313   1.288       .  A
O2312     Zr2709   2.416       .  S
O2312      C2313   1.284       .  A
O2314     Zr2317   2.442       .  S
O2314      C2316   1.288       .  A
O2315     Zr2344   2.424       .  S
O2315      C2316   1.286       .  A
Zr2317     O2318   2.434       .  S
Zr2317     O2319   2.436       .  S
Zr2317     O2323   2.375       .  S
Zr2317     O2324   2.373       .  S
Zr2317     O2347   2.371       .  S
Zr2317     O2349   2.367       .  S
O2318      H2361   0.990       .  S
O2319      H2360   0.990       .  S
O2319      H2364   0.990       .  S
Zr2320     O2321   2.435       .  S
Zr2320     O2322   2.435       .  S
Zr2320     O2690   2.372       .  S
Zr2320     O2689   2.374       .  S
Zr2320     O2348   2.366       .  S
Zr2320     O2350   2.372       .  S
O2321      H2362   0.990       .  S
O2321      H2365   0.990       .  S
O2322      H2355   0.990       .  S
O2323     Zr2686   2.374   1_554  S
O2323     Zr2343   2.380       .  S
O2324     Zr2686   2.372   1_554  S
O2324     Zr2344   2.383       .  S
O2324      H2351   0.966       .  S
O2325     Zr2337   2.440       .  S
O2325      C2327   1.288       .  A
O2326     Zr2344   2.420       .  S
O2326      C2327   1.286       .  A
O2328     Zr2340   2.445       .  S
O2328      C2330   1.289       .  A
O2329     Zr2709   2.416       .  S
O2329      C2330   1.285       .  A
O2331     Zr2340   2.439       .  S
O2331      C2333   1.288       .  A
O2332     Zr2710   2.422       .  S
O2332      C2333   1.286       .  A
O2334     Zr2337   2.444       .  S
O2334      C2336   1.289       .  A
O2335     Zr2343   2.416       .  S
O2335      C2336   1.285       .  A
Zr2337     O2338   2.435       .  S
Zr2337     O2339   2.434       .  S
Zr2337     O2345   2.372       .  S
Zr2337     O2346   2.374       .  S
Zr2337     O2349   2.367       .  S
Zr2337     O2347   2.372       .  S
O2338      H2358   0.990       .  S
O2338      H2363   0.990       .  S
O2339      H2359   0.990       .  S
Zr2340     O2341   2.434       .  S
Zr2340     O2342   2.435       .  S
Zr2340     O2712   2.376       .  S
Zr2340     O2711   2.373       .  S
Zr2340     O2350   2.372       .  S
Zr2340     O2348   2.364       .  S
O2341      H2357   0.990       .  S
O2342      H2356   0.990       .  S
O2342      H2366   0.990       .  S
Zr2343     O2678   2.416   1_554  S
Zr2343     O2695   2.416   1_554  S
Zr2343     O2346   2.379       .  S
Zr2343     O2714   2.381   1_554  S
Zr2343     O2349   2.382       .  S
Zr2344     O2675   2.424   1_554  S
Zr2344     O2698   2.422   1_554  S
Zr2344     O2345   2.385       .  S
Zr2344     O2347   2.382       .  S
Zr2344     O2716   2.382   1_554  S
O2345     Zr2706   2.373   1_554  S
O2345      H2353   0.966       .  S
O2346     Zr2706   2.376   1_554  S
O2348     Zr2709   2.381       .  S
O2348      H2352   0.966       .  S
O2349      H2354   0.966       .  S
O2350     Zr2710   2.382       .  S
O2367      C2369   1.290       .  A
O2368     Zr2771   2.419       .  S
O2368      C2369   1.286       .  A
O2370     Zr2382   2.447       .  S
O2370      C2372   1.289       .  A
O2371     Zr2406   2.424       .  S
O2371      C2372   1.286       .  A
O2373      C2375   1.290       .  A
O2374     Zr2405   2.416       .  S
O2374      C2375   1.285       .  A
O2376     Zr2379   2.449       .  S
O2376      C2378   1.290       .  A
O2377     Zr2772   2.425       .  S
O2377      C2378   1.287       .  A
Zr2379     O2380   2.434       .  S
Zr2379     O2381   2.436       .  S
Zr2379     O2752   2.373       .  S
Zr2379     O2409   2.372       .  S
O2381      H2426   0.990       .  S
Zr2382     O2383   2.435       .  S
Zr2382     O2384   2.434       .  S
Zr2382     O2386   2.375       .  S
Zr2382     O2412   2.373       .  S
O2383      H2424   0.990       .  S
O2383      H2427   0.990       .  S
O2385     Zr2405   2.383       .  S
O2386     Zr2745   2.373   1_554  S
O2386     Zr2406   2.386       .  S
O2386      H2413   0.966       .  S
O2387     Zr2399   2.428       .  S
O2387      C2389   1.286       .  A
O2388     Zr2772   2.428       .  S
O2388      C2389   1.287       .  A
O2390      C2392   1.287       .  A
O2391     Zr2405   2.428       .  S
O2391      C2392   1.287       .  A
O2393     Zr2402   2.437       .  S
O2393      C2395   1.287       .  A
O2394     Zr2406   2.423       .  S
O2394      C2395   1.286       .  A
O2396      C2398   1.286       .  A
O2397     Zr2771   2.426       .  S
O2397      C2398   1.287       .  A
Zr2399     O2400   2.435       .  S
Zr2399     O2401   2.434       .  S
Zr2399     O2773   2.371       .  S
Zr2399     O2409   2.372       .  S
O2400      H2420   0.990       .  S
O2400      H2425   0.990       .  S
O2401      H2421   0.990       .  S
Zr2402     O2403   2.434       .  S
Zr2402     O2404   2.435       .  S
Zr2402     O2407   2.369       .  S
Zr2402     O2412   2.369       .  S
O2404      H2418   0.990       .  S
O2404      H2428   0.990       .  S
Zr2405     O2734   2.419   1_554  S
Zr2405     O2763   2.426   1_554  S
Zr2405     O2408   2.377       .  S
Zr2405     O2410   2.383       .  S
Zr2405     O2777   2.382   1_554  S
Zr2406     O2743   2.425   1_554  S
Zr2406     O2754   2.428   1_554  S
Zr2406     O2407   2.382       .  S
Zr2406     O2775   2.381   1_554  S
Zr2406     O2412   2.383       .  S
O2407     Zr2765   2.371   1_554  S
O2407      H2415   0.966       .  S
O2409     Zr2772   2.381       .  S
O2410      H2414   0.966       .  S
O2411     Zr2771   2.382       .  S
O2411      H2416   0.966       .  S
O2429     Zr2441   2.447       .  S
O2429      C2431   1.289       .  A
O2430     Zr2833   2.418       .  S
O2430      C2431   1.286       .  A
O2432      C2434   1.288       .  A
O2433     Zr2468   2.422       .  S
O2433      C2434   1.286       .  A
O2435     Zr2444   2.442       .  S
O2435      C2437   1.288       .  A
O2436     Zr2467   2.418       .  S
O2436      C2437   1.286       .  A
O2438      C2440   1.288       .  A
O2439     Zr2834   2.424       .  S
O2439      C2440   1.287       .  A
Zr2441     O2442   2.434       .  S
Zr2441     O2813   2.374       .  S
Zr2441     O2473   2.369       .  S
O2442      H2485   0.990       .  S
Zr2444     O2445   2.435       .  S
Zr2444     O2447   2.374       .  S
Zr2444     O2472   2.370       .  S
O2445      H2489   0.990       .  S
O2447     Zr2807   2.374   1_554  S
O2447     Zr2467   2.382       .  S
O2448     Zr2468   2.384       .  S
O2448      H2475   0.966       .  S
O2449      C2451   1.288       .  A
O2450     Zr2834   2.420       .  S
O2450      C2451   1.286       .  A
O2452     Zr2464   2.442       .  S
O2452      C2454   1.288       .  A
O2453     Zr2467   2.428       .  S
O2453      C2454   1.287       .  A
O2455      C2457   1.287       .  A
O2456     Zr2468   2.423       .  S
O2456      C2457   1.286       .  A
O2458     Zr2461   2.440       .  S
O2458      C2460   1.288       .  A
O2459     Zr2833   2.426       .  S
O2459      C2460   1.287       .  A
Zr2461     O2462   2.435       .  S
Zr2461     O2463   2.434       .  S
Zr2461     O2836   2.375       .  S
Zr2461     O2473   2.368       .  S
O2462      H2487   0.990       .  S
Zr2464     O2465   2.434       .  S
Zr2464     O2466   2.436       .  S
Zr2464     O2470   2.375       .  S
Zr2464     O2472   2.366       .  S
O2465      H2481   0.990       .  S
O2466      H2490   0.990   1_565  S
Zr2467     O2796   2.418   1_554  S
Zr2467     O2825   2.426   1_554  S
Zr2467     O2470   2.379       .  S
Zr2467     O2472   2.383       .  S
Zr2467     O2839   2.384   1_554  S
Zr2468     O2805   2.424   1_554  S
Zr2468     O2816   2.420   1_554  S
Zr2468     O2469   2.383       .  S
Zr2468     O2837   2.381   1_554  S
Zr2468     O2474   2.381       .  S
O2469      H2477   0.966       .  S
O2470     Zr2827   2.375   1_554  S
O2471     Zr2834   2.381       .  S
O2472      H2476   0.966       .  S
O2473     Zr2833   2.384       .  S
O2473      H2478   0.966       .  S
C2491      C2492   1.402       .  A
C2491      C2496   1.414       .  A
C2492      C2493   1.394       .  A
C2492      H2501   1.084       .  S
C2493      C2494   1.414       .  A
C2493      S2497   1.802       .  S
C2494      C2495   1.405       .  A
C2495      C2496   1.402       .  A
C2495      H2502   1.084       .  S
C2496      S2498   1.804       .  S
S2497      H2500   1.407       .  S
S2498      H2499   1.406       .  S
C2503      C2504   1.403       .  A
C2503      C2508   1.410       .  A
C2504      C2505   1.403       .  A
C2504      H2513   1.084       .  S
C2505      C2506   1.413       .  A
C2505      S2509   1.803       .  S
C2506      C2507   1.400       .  A
C2507      C2508   1.395       .  A
C2507      H2514   1.084       .  S
C2508      S2510   1.800       .  S
S2509      H2512   1.405       .  S
S2510      H2511   1.404       .  S
C2515      C2516   1.407       .  A
C2515      C2520   1.418       .  A
C2516      C2517   1.404       .  A
C2516      H2525   1.084       .  S
C2517      C2518   1.417       .  A
C2517      S2521   1.804       .  S
C2518      C2519   1.403       .  A
C2519      C2520   1.393       .  A
C2519      H2526   1.084       .  S
C2520      S2522   1.802       .  S
S2521      H2524   1.407       .  S
S2522      H2523   1.406       .  S
C2527      C2528   1.402       .  A
C2527      C2532   1.412       .  A
C2528      C2529   1.397       .  A
C2528      H2537   1.084       .  S
C2529      C2530   1.413       .  A
C2529      S2533   1.805       .  S
C2530      C2531   1.403       .  A
C2531      C2532   1.401       .  A
C2531      H2538   1.084       .  S
C2532      S2534   1.804       .  S
S2533      H2536   1.406       .  S
S2534      H2535   1.406       .  S
C2539      C2540   1.404       .  A
C2539      C2544   1.416       .  A
C2540      C2541   1.397       .  A
C2540      H2549   1.084       .  S
C2541      C2542   1.416       .  A
C2541      S2545   1.806       .  S
C2542      C2543   1.405       .  A
C2543      C2544   1.401       .  A
C2543      H2550   1.084       .  S
C2544      S2546   1.804       .  S
S2545      H2548   1.406       .  S
S2546      H2547   1.406       .  S
C2551      C2552   1.405       .  A
C2551      C2556   1.416       .  A
C2552      C2553   1.402       .  A
C2552      H2561   1.083       .  S
C2553      C2554   1.415       .  A
C2553      S2557   1.808       .  S
C2554      C2555   1.405       .  A
C2555      C2556   1.401       .  A
C2555      H2562   1.083       .  S
C2556      S2558   1.811       .  S
S2557      H2560   1.407       .  S
S2558      H2559   1.407       .  S
C2563      C2564   1.406       .  A
C2563      C2568   1.405       .  A
C2563      C2917   1.488       .  S
C2564      C2565   1.402       .  A
C2564      H2569   1.084       .  S
C2565      C2566   1.401       .  A
C2565      C2673   1.469       .  S
C2566      C2567   1.402       .  A
C2566      H2570   1.084       .  S
C2567      C2568   1.403       .  A
C2567      C2803   1.470       .  S
C2568      H2571   1.083       .  S
C2572      C2573   1.408       .  A
C2572      C2577   1.404       .  A
C2572      C2920   1.489       .  S
C2573      C2574   1.403       .  A
C2573      H2578   1.084       .  S
C2574      C2575   1.402       .  A
C2574      C2797   1.473       .  S
C2575      C2576   1.401       .  A
C2575      H2579   1.084       .  S
C2576      C2577   1.401       .  A
C2576      C2679   1.468       .  S
C2577      H2580   1.083       .  S
C2581      C2582   1.404       .  A
C2581      C2586   1.405       .  A
C2581      C2905   1.485       .  S
C2582      C2583   1.403       .  A
C2582      H2587   1.084       .  S
C2583      C2584   1.403       .  A
C2583      C2826   1.472       .  S
C2584      C2585   1.404       .  A
C2584      H2588   1.084       .  S
C2585      C2586   1.404       .  A
C2585      C2735   1.474       .  S
C2586      H2589   1.084       .  S
C2590      C2591   1.404       .  A
C2590      C2595   1.405       .  A
C2590      C2908   1.485       .  S
C2591      C2592   1.402       .  A
C2591      H2596   1.084       .  S
C2592      C2593   1.404       .  A
C2592      C2741   1.473       .  S
C2593      C2594   1.403       .  A
C2593      H2597   1.084       .  S
C2594      C2595   1.404       .  A
C2594      C2820   1.474       .  S
C2595      H2598   1.084       .  S
C2599      C2600   1.402       .  A
C2599      C2604   1.401       .  A
C2599      C2893   1.475       .  S
C2600      C2601   1.405       .  A
C2600      H2605   1.084       .  S
C2601      C2602   1.403       .  A
C2601      C2758   1.472       .  S
C2602      C2603   1.403       .  A
C2602      H2606   1.084       .  S
C2603      C2604   1.402       .  A
C2603      C2702   1.470       .  S
C2604      H2607   1.084       .  S
C2608      C2609   1.401       .  A
C2608      C2613   1.402       .  A
C2608      C2896   1.475       .  S
C2609      C2610   1.403       .  A
C2609      H2614   1.084       .  S
C2610      C2611   1.402       .  A
C2610      C2764   1.470       .  S
C2611      C2612   1.403       .  A
C2611      H2615   1.084       .  S
C2612      C2613   1.403       .  A
C2612      C2696   1.470       .  S
C2613      H2616   1.084       .  S
C2617      C2618   1.402       .  A
C2617      C2622   1.407       .  A
C2617      C2881   1.491       .  S
C2618      C2619   1.402       .  A
C2618      H2623   1.083       .  S
C2619      C2620   1.401       .  A
C2619      C2755   1.472       .  S
C2620      C2621   1.404       .  A
C2620      H2624   1.084       .  S
C2621      C2622   1.406       .  A
C2621      C2806   1.473       .  S
C2622      H2625   1.084       .  S
C2626      C2627   1.405       .  A
C2626      C2631   1.406       .  A
C2626      C2884   1.491       .  S
C2627      C2628   1.402       .  A
C2627      H2632   1.084       .  S
C2628      C2629   1.402       .  A
C2628      C2761   1.474       .  S
C2629      C2630   1.403       .  A
C2629      H2633   1.084       .  S
C2630      C2631   1.405       .  A
C2630      C2800   1.474       .  S
C2631      H2634   1.083       .  S
C2635      C2636   1.402       .  A
C2635      C2640   1.401       .  A
C2635      C2872   1.474       .  S
C2636      C2637   1.403       .  A
C2636      H2641   1.084       .  S
C2637      C2638   1.406       .  A
C2637      C2738   1.476       .  S
C2638      C2639   1.406       .  A
C2638      H2642   1.084       .  S
C2639      C2640   1.404       .  A
C2639      C2682   1.474       .  S
C2640      H2643   1.084       .  S
C2644      C2645   1.399       .  A
C2644      C2649   1.403       .  A
C2644      C2869   1.475       .  S
C2645      C2646   1.403       .  A
C2645      H2650   1.084       .  S
C2646      C2647   1.406       .  A
C2646      C2676   1.474       .  S
C2647      C2648   1.406       .  A
C2647      H2651   1.084       .  S
C2648      C2649   1.404       .  A
C2648      C2744   1.477       .  S
C2649      H2652   1.084       .  S
C2653      C2654   1.402       .  A
C2653      C2658   1.403       .  A
C2653      C2860   1.481       .  S
C2654      C2655   1.401       .  A
C2654      H2659   1.084       .  S
C2655      C2656   1.403       .  A
C2655      C2699   1.472       .  S
C2656      C2657   1.405       .  A
C2656      H2660   1.084       .  S
C2657      C2658   1.404       .  A
C2657      C2817   1.473       .  S
C2658      H2661   1.084       .  S
C2662      C2663   1.403       .  A
C2662      C2667   1.402       .  A
C2662      C2857   1.481       .  S
C2663      C2664   1.404       .  A
C2663      H2668   1.084       .  S
C2664      C2665   1.404       .  A
C2664      C2823   1.473       .  S
C2665      C2666   1.403       .  A
C2665      H2669   1.084       .  S
C2666      C2667   1.401       .  A
C2666      C2693   1.472       .  S
C2667      H2670   1.084       .  S
O2671     Zr2683   2.445       .  S
O2671      C2673   1.288       .  A
O2672     Zr2709   2.417       .  S
O2672      C2673   1.285       .  A
O2674     Zr2686   2.441       .  S
O2674      C2676   1.288       .  A
O2675      C2676   1.286       .  A
O2677     Zr2686   2.443       .  S
O2677      C2679   1.288       .  A
O2678      C2679   1.284       .  A
O2680     Zr2683   2.442       .  S
O2680      C2682   1.288       .  A
O2681     Zr2710   2.424       .  S
O2681      C2682   1.286       .  A
Zr2683     O2684   2.434       .  S
Zr2683     O2685   2.436       .  S
Zr2683     O2689   2.375       .  S
Zr2683     O2690   2.373       .  S
Zr2683     O2713   2.371       .  S
Zr2683     O2715   2.367       .  S
O2684      H2727   0.990       .  S
O2685      H2726   0.990       .  S
O2685      H2730   0.990       .  S
Zr2686     O2687   2.435       .  S
Zr2686     O2688   2.435       .  S
Zr2686     O2714   2.366       .  S
Zr2686     O2716   2.372       .  S
O2687      H2728   0.990       .  S
O2687      H2731   0.990       .  S
O2688      H2721   0.990       .  S
O2689     Zr2709   2.380       .  S
O2690     Zr2710   2.383       .  S
O2690      H2717   0.966       .  S
O2691     Zr2703   2.440       .  S
O2691      C2693   1.288       .  A
O2692     Zr2710   2.420       .  S
O2692      C2693   1.286       .  A
O2694     Zr2706   2.445       .  S
O2694      C2696   1.289       .  A
O2695      C2696   1.285       .  A
O2697     Zr2706   2.439       .  S
O2697      C2699   1.288       .  A
O2698      C2699   1.286       .  A
O2700     Zr2703   2.444       .  S
O2700      C2702   1.289       .  A
O2701     Zr2709   2.416       .  S
O2701      C2702   1.285       .  A
Zr2703     O2704   2.435       .  S
Zr2703     O2705   2.434       .  S
Zr2703     O2711   2.372       .  S
Zr2703     O2712   2.374       .  S
Zr2703     O2715   2.367       .  S
Zr2703     O2713   2.372       .  S
O2704      H2724   0.990       .  S
O2704      H2729   0.990       .  S
O2705      H2725   0.990       .  S
Zr2706     O2707   2.434       .  S
Zr2706     O2708   2.435       .  S
Zr2706     O2716   2.372       .  S
Zr2706     O2714   2.364       .  S
O2707      H2723   0.990       .  S
O2708      H2722   0.990       .  S
O2708      H2732   0.990       .  S
Zr2709     O2712   2.379       .  S
Zr2709     O2715   2.382       .  S
Zr2710     O2711   2.385       .  S
Zr2710     O2713   2.382       .  S
O2711      H2719   0.966       .  S
O2714      H2718   0.966       .  S
O2715      H2720   0.966       .  S
O2733      C2735   1.290       .  A
O2734      C2735   1.286       .  A
O2736     Zr2748   2.447       .  S
O2736      C2738   1.289       .  A
O2737     Zr2772   2.424       .  S
O2737      C2738   1.286       .  A
O2739      C2741   1.290       .  A
O2740     Zr2771   2.416       .  S
O2740      C2741   1.285       .  A
O2742     Zr2745   2.449       .  S
O2742      C2744   1.290       .  A
O2743      C2744   1.287       .  A
Zr2745     O2746   2.434       .  S
Zr2745     O2747   2.436       .  S
Zr2745     O2775   2.372       .  S
O2747      H2792   0.990       .  S
Zr2748     O2749   2.435       .  S
Zr2748     O2750   2.434       .  S
Zr2748     O2752   2.375       .  S
Zr2748     O2778   2.373       .  S
O2749      H2790   0.990       .  S
O2749      H2793   0.990       .  S
O2751     Zr2771   2.383       .  S
O2752     Zr2772   2.386       .  S
O2752      H2779   0.966       .  S
O2753     Zr2765   2.428       .  S
O2753      C2755   1.286       .  A
O2754      C2755   1.287       .  A
O2756      C2758   1.287       .  A
O2757     Zr2771   2.428       .  S
O2757      C2758   1.287       .  A
O2759     Zr2768   2.437       .  S
O2759      C2761   1.287       .  A
O2760     Zr2772   2.423       .  S
O2760      C2761   1.286       .  A
O2762      C2764   1.286       .  A
O2763      C2764   1.287       .  A
Zr2765     O2766   2.435       .  S
Zr2765     O2767   2.434       .  S
Zr2765     O2775   2.372       .  S
O2766      H2786   0.990       .  S
O2766      H2791   0.990       .  S
O2767      H2787   0.990       .  S
Zr2768     O2769   2.434       .  S
Zr2768     O2770   2.435       .  S
Zr2768     O2773   2.369       .  S
Zr2768     O2778   2.369       .  S
O2770      H2784   0.990       .  S
O2770      H2794   0.990       .  S
Zr2771     O2774   2.377       .  S
Zr2771     O2776   2.383       .  S
Zr2772     O2773   2.382       .  S
Zr2772     O2778   2.383       .  S
O2773      H2781   0.966       .  S
O2776      H2780   0.966       .  S
O2777      H2782   0.966       .  S
O2795     Zr2807   2.447       .  S
O2795      C2797   1.289       .  A
O2796      C2797   1.286       .  A
O2798      C2800   1.288       .  A
O2799     Zr2834   2.422       .  S
O2799      C2800   1.286       .  A
O2801     Zr2810   2.442       .  S
O2801      C2803   1.288       .  A
O2802     Zr2833   2.418       .  S
O2802      C2803   1.286       .  A
O2804      C2806   1.288       .  A
O2805      C2806   1.287       .  A
Zr2807     O2808   2.434       .  S
Zr2807     O2839   2.369       .  S
O2808      H2851   0.990       .  S
Zr2810     O2811   2.435       .  S
Zr2810     O2813   2.374       .  S
Zr2810     O2838   2.370       .  S
O2811      H2855   0.990       .  S
O2813     Zr2833   2.382       .  S
O2814     Zr2834   2.384       .  S
O2814      H2841   0.966       .  S
O2815      C2817   1.288       .  A
O2816      C2817   1.286       .  A
O2818     Zr2830   2.442       .  S
O2818      C2820   1.288       .  A
O2819     Zr2833   2.428       .  S
O2819      C2820   1.287       .  A
O2821      C2823   1.287       .  A
O2822     Zr2834   2.423       .  S
O2822      C2823   1.286       .  A
O2824     Zr2827   2.440       .  S
O2824      C2826   1.288       .  A
O2825      C2826   1.287       .  A
Zr2827     O2828   2.435       .  S
Zr2827     O2829   2.434       .  S
Zr2827     O2839   2.368       .  S
O2828      H2853   0.990       .  S
Zr2830     O2831   2.434       .  S
Zr2830     O2832   2.436       .  S
Zr2830     O2836   2.375       .  S
Zr2830     O2838   2.366       .  S
O2831      H2847   0.990       .  S
O2832      H2856   0.990   1_565  S
Zr2833     O2836   2.379       .  S
Zr2833     O2838   2.383       .  S
Zr2834     O2835   2.383       .  S
Zr2834     O2840   2.381       .  S
O2835      H2843   0.966       .  S
O2838      H2842   0.966       .  S
O2839      H2844   0.966       .  S
C2857      C2858   1.402       .  A
C2857      C2862   1.414       .  A
C2858      C2859   1.394       .  A
C2858      H2867   1.084       .  S
C2859      C2860   1.414       .  A
C2859      S2863   1.802       .  S
C2860      C2861   1.405       .  A
C2861      C2862   1.402       .  A
C2861      H2868   1.084       .  S
C2862      S2864   1.804       .  S
S2863      H2866   1.407       .  S
S2864      H2865   1.406       .  S
C2869      C2870   1.403       .  A
C2869      C2874   1.410       .  A
C2870      C2871   1.403       .  A
C2870      H2879   1.084       .  S
C2871      C2872   1.413       .  A
C2871      S2875   1.803       .  S
C2872      C2873   1.400       .  A
C2873      C2874   1.395       .  A
C2873      H2880   1.084       .  S
C2874      S2876   1.800       .  S
S2875      H2878   1.405       .  S
S2876      H2877   1.404       .  S
C2881      C2882   1.407       .  A
C2881      C2886   1.418       .  A
C2882      C2883   1.404       .  A
C2882      H2891   1.084       .  S
C2883      C2884   1.417       .  A
C2883      S2887   1.804       .  S
C2884      C2885   1.403       .  A
C2885      C2886   1.393       .  A
C2885      H2892   1.084       .  S
C2886      S2888   1.802       .  S
S2887      H2890   1.407       .  S
S2888      H2889   1.406       .  S
C2893      C2894   1.402       .  A
C2893      C2898   1.412       .  A
C2894      C2895   1.397       .  A
C2894      H2903   1.084       .  S
C2895      C2896   1.413       .  A
C2895      S2899   1.805       .  S
C2896      C2897   1.403       .  A
C2897      C2898   1.401       .  A
C2897      H2904   1.084       .  S
C2898      S2900   1.804       .  S
S2899      H2902   1.406       .  S
S2900      H2901   1.406       .  S
C2905      C2906   1.404       .  A
C2905      C2910   1.416       .  A
C2906      C2907   1.397       .  A
C2906      H2915   1.084       .  S
C2907      C2908   1.416       .  A
C2907      S2911   1.806       .  S
C2908      C2909   1.405       .  A
C2909      C2910   1.401       .  A
C2909      H2916   1.084       .  S
C2910      S2912   1.804       .  S
S2911      H2914   1.406       .  S
S2912      H2913   1.406       .  S
C2917      C2918   1.405       .  A
C2917      C2922   1.416       .  A
C2918      C2919   1.402       .  A
C2918      H2927   1.083       .  S
C2919      C2920   1.415       .  A
C2919      S2923   1.808       .  S
C2920      C2921   1.405       .  A
C2921      C2922   1.401       .  A
C2921      H2928   1.083       .  S
C2922      S2924   1.811       .  S
S2923      H2926   1.407       .  S
S2924      H2925   1.407       .  S
