geometry optimzed in LAMMPS
_audit_creation_date              2020-12-01 
_audit_creation_method            'lammps2cif' 
_symmetry_space_group_name_H-M    'P1' 
_symmetry_Int_Tables_number       1 
_symmetry_cell_setting            triclinic 
loop_ 
_symmetry_equiv_pos_as_xyz 
  x,y,z 
_cell_length_a                    24.63229361 
_cell_length_b                    24.442037584195162 
_cell_length_c                    29.30577363283725 
_cell_angle_alpha                 89.51584762694047 
_cell_angle_beta                  89.97901088365136 
_cell_angle_gamma                 91.03295995190051 
loop_ 
_atom_site_label 
_atom_site_type_symbol 
_atom_site_fract_x 
_atom_site_fract_y 
_atom_site_fract_z 
_atom_site_charge 
O1          O  0.36940997  0.40677694  0.43418837    -0.73700
O2          O  0.42016455  0.45202136  0.38001491    -0.52700
C3          C  0.38222211  0.41848133  0.39258550     0.80000
O4          O  0.38155182  0.62460603  0.58409833    -0.58300
O5          O  0.42771638  0.57514342  0.63755505    -0.51400
C6          C  0.39372564  0.61166860  0.62553767     0.72000
O7          O  0.37624838  0.61764145  0.42961242    -0.72900
O8          O  0.42476705  0.56967467  0.37736584    -0.53500
C9          C  0.38853268  0.60445528  0.38842667     0.78000
O10         O  0.37485589  0.40454807  0.58892757    -0.58100
O11         O  0.42506432  0.45352889  0.64047694    -0.51200
C12         C  0.38883643  0.41733862  0.62990040     0.74600
Zr13       Zr  0.39996932  0.43198263  0.51088249     2.54700
O14         O  0.30149963  0.43892743  0.51155980    -0.78600
O15         O  0.39626228  0.33221740  0.51205021    -0.92000
Zr16       Zr  0.40645108  0.59491793  0.50717846     2.64700
O17         O  0.30767015  0.59765637  0.50842302    -0.97000
O18         O  0.41842853  0.69378179  0.50172859    -0.79000
O19         O  0.40227883  0.51248401  0.46503833    -0.82400
O20         O  0.40225152  0.51436388  0.55312784    -2.17100
O21         O  0.58716459  0.40309666  0.58815492    -0.65800
O22         O  0.54167338  0.45439490  0.64008143    -0.50400
C23         C  0.57566970  0.41766316  0.62909705     0.73000
O24         O  0.59860920  0.61284604  0.42948983    -0.58700
O25         O  0.54735899  0.56569580  0.37743734    -0.50700
C26         C  0.58575763  0.59928952  0.38849633     0.74800
O27         O  0.59570210  0.62040754  0.58401149    -0.70100
O28         O  0.54679207  0.57250435  0.63781012    -0.48800
C29         C  0.58336784  0.60787428  0.62564976     0.76200
O30         O  0.58785553  0.40002464  0.43423634    -0.65400
O31         O  0.54025981  0.44671656  0.37994285    -0.52600
C32         C  0.57519998  0.41119664  0.39265238     0.74500
Zr33       Zr  0.56149994  0.42909417  0.51042171     2.77500
O34         O  0.66044561  0.43198506  0.50993503    -0.96200
O35         O  0.55544729  0.32961766  0.51196278    -0.77000
Zr36       Zr  0.56774745  0.59176222  0.50709022     2.70100
O37         O  0.66624743  0.58578967  0.50754604    -0.78200
O38         O  0.57043080  0.69131168  0.50245167    -0.97300
Zr39       Zr  0.48351349  0.50993910  0.42123459     2.21500
Zr40       Zr  0.48440800  0.51359425  0.59594194     2.11100
O41         O  0.56609241  0.51127389  0.55269630    -2.46000
O42         O  0.56519783  0.50946535  0.46454147    -0.78000
O43         O  0.48097457  0.43015143  0.55473874    -0.70200
O44         O  0.48697693  0.59347080  0.46271189    -2.31200
O45         O  0.48048266  0.42831120  0.46651171    -2.27400
O46         O  0.48721848  0.59550914  0.55142962    -0.72000
H47         H  0.37089700  0.51532799  0.57337624     0.80000
H48         H  0.48803931  0.62457379  0.44211238     0.81100
H49         H  0.59766643  0.51113051  0.57239517     0.83300
H50         H  0.47912445  0.39612211  0.44751794     0.80900
H51         H  0.45066310  0.70192216  0.52084623     0.44000
H52         H  0.60864449  0.70066853  0.49471670     0.42900
H53         H  0.67375414  0.55172332  0.49080124     0.42600
H54         H  0.67089079  0.45104888  0.53838236     0.40500
H55         H  0.51727615  0.32131028  0.52054081     0.43700
H56         H  0.40127741  0.32103846  0.47995698     0.38500
H57         H  0.29380835  0.46725309  0.53449630     0.44600
H58         H  0.29661029  0.57150670  0.53283313     0.41000
H59         H  0.67108149  0.39357076  0.51513335     0.45900
H60         H  0.35784306  0.32279928  0.51895781     0.44600
H61         H  0.29925039  0.63407098  0.52084462     0.44800
H62         H  0.54981931  0.70035151  0.47447279     0.45100
C63         C  0.72073125  0.72710151  0.79946811     0.88000
C64         C  0.75309981  0.68607535  0.82870176    -0.52200
C65         C  0.78159811  0.71043297  0.86337634     0.11000
C66         C  0.77537276  0.77236915  0.86524186     0.21900
C67         C  0.68506568  0.75808270  0.83356718    -0.52900
C68         C  0.71427898  0.78165976  0.86817609     0.11100
C69         C  0.76310409  0.76976809  0.78297623    -0.52500
C70         C  0.79183777  0.79330402  0.81780444     0.11600
H71         H  0.75301394  0.64229175  0.82275326     0.16100
H72         H  0.79891654  0.79207460  0.89321522     0.01900
H73         H  0.64128670  0.76108960  0.83055465     0.16500
H74         H  0.77044199  0.77942044  0.74723791     0.16200
C75         C  0.71651435  0.28436373  0.78826707     0.88000
C76         C  0.68115650  0.24834875  0.81996920    -0.52200
C77         C  0.71042225  0.21457279  0.84741456     0.11000
C78         C  0.77229313  0.22139528  0.84118715     0.21900
C79         C  0.75540865  0.31597312  0.81986558    -0.52900
C80         C  0.78460948  0.28250308  0.84781845     0.11100
C81         C  0.75216626  0.24432866  0.76223247    -0.52500
C82         C  0.78192178  0.21163748  0.79010551     0.11600
H83         H  0.63705573  0.24865034  0.81999235     0.16100
H84         H  0.79657476  0.19526169  0.86418138     0.01900
H85         H  0.75865438  0.36031553  0.82054341     0.16500
H86         H  0.75390491  0.24215435  0.72524564     0.16200
C87         C  0.26038937  0.73031658  0.79668444     0.88000
C88         C  0.29371248  0.76578215  0.82995160    -0.52200
C89         C  0.26218342  0.79449391  0.85942012     0.11000
C90         C  0.20099855  0.78491137  0.85269607     0.21900
C91         C  0.22330931  0.69367950  0.82686002    -0.52900
C92         C  0.19205367  0.72268305  0.85648487     0.11100
C93         C  0.22240378  0.77019901  0.77282121    -0.52500
C94         C  0.19116212  0.79895578  0.80200919     0.11600
H95         H  0.33777879  0.76793111  0.83007725     0.16100
H96         H  0.17626630  0.80847011  0.87704034     0.01900
H97         H  0.22258480  0.64933170  0.82518897     0.16500
H98         H  0.22102986  0.77599105  0.73602407     0.16200
C99         C  0.25715332  0.28347817  0.80028107     0.88000
C100        C  0.21211542  0.24592079  0.78096185    -0.52200
C101        C  0.18278555  0.21901273  0.81407949     0.11000
C102        C  0.20125427  0.23188084  0.86267333     0.21900
C103        C  0.22803525  0.32165994  0.83350862    -0.52900
C104        C  0.19882013  0.29408950  0.86630085     0.11100
C105        C  0.29158710  0.24574534  0.83054335    -0.52500
C106        C  0.26166517  0.21848610  0.86320307     0.11600
H107        H  0.20382840  0.24156870  0.74476493     0.16100
H108        H  0.17706447  0.20965213  0.88923966     0.01900
H109        H  0.23022283  0.36601184  0.83120562     0.16500
H110        H  0.33505499  0.24113671  0.82639686     0.16200
N111        N  0.98226379  0.92438863  0.78438551    -0.35100
N112        N  0.90376778  0.01068600  0.77425188    -0.55600
N113        N  0.99392576  0.08932501  0.77586888    -0.35100
N114        N  0.07251009  0.00277795  0.77694361    -0.55600
C115        C  0.93742334  0.89452948  0.77346897     0.28500
C116        C  0.02492877  0.89068527  0.78209220     0.28500
C117        C  0.95132652  0.12248728  0.76953945     0.28500
C118        C  0.03918804  0.11827210  0.76419279     0.28500
C119        C  0.86974347  0.96775563  0.78241269     0.37100
C120        C  0.87646795  0.05590622  0.78588083     0.37100
C121        C  0.10047319  0.95862611  0.79086033     0.37100
C122        C  0.10716792  0.04615126  0.77952191     0.37100
C123        C  0.95208020  0.84133457  0.76363481    -0.20300
C124        C  0.00729143  0.83873645  0.76975202    -0.20300
C125        C  0.96937391  0.17304697  0.75341813    -0.20300
C126        C  0.02489656  0.17025276  0.74962666    -0.20300
C127        C  0.82009969  0.98577276  0.79795640    -0.21400
C128        C  0.82462121  0.04169565  0.80068102    -0.21400
C129        C  0.15365748  0.97372668  0.80095297    -0.21400
C130        C  0.15801907  0.02914690  0.79336559    -0.21400
C131        C  0.88330637  0.91244649  0.77697111    -0.16800
C132        C  0.07887227  0.90472761  0.79346347    -0.16800
C133        C  0.09317016  0.10107723  0.77086306    -0.16700
C134        C  0.89738430  0.10989022  0.78208915    -0.16700
H135        H  0.92557619  0.80743784  0.75433489     0.16200
H136        H  0.03172165  0.80272966  0.76564205     0.16200
H137        H  0.94507323  0.20846032  0.74587431     0.16200
H138        H  0.05183420  0.20333279  0.73876523     0.16200
H139        H  0.78499224  0.96110769  0.80772373     0.14400
H140        H  0.79343246  0.06876912  0.81236452     0.14400
H141        H  0.18599365  0.94774293  0.81270398     0.14400
H142        H  0.19412605  0.05419230  0.79866156     0.14400
H143        H  0.98316676  0.96297076  0.79885182     0.27700
H144        H  0.99248018  0.05252182  0.79370884     0.27700
C145        C  0.73591270  0.71721490  0.22185612     0.88000
C146        C  0.70229160  0.75232044  0.18900555    -0.52200
C147        C  0.73328034  0.78021707  0.15754523     0.11000
C148        C  0.79429568  0.77020493  0.16197052     0.21900
C149        C  0.76944497  0.67972169  0.19114677    -0.52900
C150        C  0.80008870  0.70795809  0.15948672     0.11100
C151        C  0.77728733  0.75718680  0.24305500    -0.52500
C152        C  0.80799078  0.78506746  0.21141503     0.11600
H153        H  0.65835894  0.75483073  0.19054910     0.16100
H154        H  0.81925478  0.79331355  0.13645200     0.01900
H155        H  0.76867136  0.63546432  0.19436049     0.16500
H156        H  0.78206303  0.76238464  0.27960630     0.16200
C157        C  0.24691330  0.72826932  0.22013906     0.88000
C158        C  0.20529095  0.76760463  0.23995639    -0.52200
C159        C  0.17599021  0.79450407  0.20740243     0.11000
C160        C  0.19105933  0.77915589  0.15836787     0.21900
C161        C  0.21384908  0.68968806  0.18891579    -0.52900
C162        C  0.18472944  0.71675935  0.15622292     0.11100
C163        C  0.28200270  0.76380865  0.18753344    -0.52500
C164        C  0.25231568  0.79034433  0.15493316     0.11600
H165        H  0.19928427  0.77301327  0.27633351     0.16100
H166        H  0.16712820  0.80118498  0.13206354     0.01900
H167        H  0.21453482  0.64542650  0.19196400     0.16500
H168        H  0.32594231  0.76694054  0.18973242     0.16200
N169        N  0.90679697  0.61616480  0.00521547    -0.35100
N170        N  0.99011339  0.61127459  0.07641937    -0.55600
N171        N  0.07212850  0.62365008  0.00477225    -0.35100
N172        N  0.98905679  0.62006220  0.93331812    -0.55600
C173        C  0.87523671  0.60758711  0.04247568     0.28500
C174        C  0.87458837  0.61146599  0.96800882     0.28500
C175        C  0.10430653  0.61663576  0.04169601     0.28500
C176        C  0.10390606  0.62051807  0.96725370     0.28500
C177        C  0.94605389  0.61894385  0.10302757     0.37100
C178        C  0.03393920  0.62236975  0.10281709     0.37100
C179        C  0.94463289  0.63010565  0.90755982     0.37100
C180        C  0.03280213  0.63401278  0.90743673     0.37100
C181        C  0.82230688  0.59661780  0.02883616    -0.20300
C182        C  0.82193603  0.59873081  0.98187809    -0.20300
C183        C  0.15716199  0.60822384  0.02749128    -0.20300
C184        C  0.15690269  0.61054085  0.98051416    -0.20300
C185        C  0.96206540  0.63237548  0.14695421    -0.21400
C186        C  0.01766031  0.63461060  0.14680801    -0.21400
C187        C  0.96041518  0.64879949  0.86464280    -0.21400
C188        C  0.01613016  0.65116999  0.86455793    -0.21400
C189        C  0.89141137  0.61597570  0.08825621    -0.16800
C190        C  0.88997160  0.62442416  0.92240797    -0.16800
C191        C  0.08765377  0.63239982  0.92189731    -0.16700
C192        C  0.08847644  0.62364397  0.08771072    -0.16700
H193        H  0.78726703  0.58955876  0.05054285     0.16200
H194        H  0.78647014  0.59353179  0.96044870     0.16200
H195        H  0.19251798  0.60264549  0.04883833     0.16200
H196        H  0.19208189  0.60711610  0.95864905     0.16200
H197        H  0.93637669  0.64108676  0.17587844     0.14400
H198        H  0.04308016  0.64549792  0.17557221     0.14400
H199        H  0.93458770  0.66077580  0.83655200     0.14400
H200        H  0.04140748  0.66510797  0.83640363     0.14400
H201        H  0.94571005  0.63265940  0.00550541     0.27700
H202        H  0.03302810  0.63834691  0.00540033     0.27700
C203        C  0.25086524  0.28464685  0.22521751     0.88000
C204        C  0.29182227  0.25228425  0.19723975    -0.52200
C205        C  0.26831055  0.21914684  0.16538195     0.11000
C206        C  0.20588778  0.22290284  0.16390580     0.21900
C207        C  0.21753714  0.31666487  0.19005108    -0.52900
C208        C  0.19398287  0.28392602  0.15773521     0.11100
C209        C  0.21128499  0.24143954  0.24510537    -0.52500
C210        C  0.18729843  0.20899926  0.21271949     0.11600
H211        H  0.33538664  0.25423702  0.20299214     0.16100
H212        H  0.18550238  0.19752008  0.13760050     0.01900
H213        H  0.21308992  0.36077176  0.19065968     0.16500
H214        H  0.20367062  0.23725355  0.28142254     0.16200
N215        N  0.90580124  0.99993620  0.27641359    -0.35100
N216        N  0.99070013  0.91878032  0.26617801    -0.55600
N217        N  0.07353162  0.00513059  0.26989465    -0.35100
N218        N  0.98851209  0.08662335  0.27542825    -0.55600
C219        C  0.87537229  0.95523914  0.26548559     0.28500
C220        C  0.87416848  0.04421753  0.27049627     0.28500
C221        C  0.10439905  0.96205043  0.25836225     0.28500
C222        C  0.10311193  0.05129168  0.26107341     0.28500
C223        C  0.94728203  0.88466476  0.27105202     0.37100
C224        C  0.03512342  0.88724738  0.26885289     0.37100
C225        C  0.94444511  0.11749270  0.28306566     0.37100
C226        C  0.03248049  0.12011201  0.27971779     0.37100
C227        C  0.82350328  0.97124439  0.25347953    -0.20300
C228        C  0.82273309  0.02726633  0.25670377    -0.20300
C229        C  0.15468597  0.98091414  0.24320178    -0.20300
C230        C  0.15402966  0.03702204  0.24511778    -0.20300
C231        C  0.96421708  0.83126443  0.27696427    -0.21400
C232        C  0.01986171  0.83291025  0.27561006    -0.21400
C233        C  0.96045973  0.17083859  0.29250109    -0.21400
C234        C  0.01615387  0.17254700  0.29032906    -0.21400
C235        C  0.89253864  0.90026663  0.26662508    -0.16800
C236        C  0.88992171  0.09954265  0.27749589    -0.16800
C237        C  0.08636511  0.10577985  0.26881164    -0.16700
C238        C  0.08905589  0.90607474  0.26174193    -0.16700
H239        H  0.78969706  0.94532849  0.24310328     0.16200
H240        H  0.78822421  0.05265589  0.24933434     0.16200
H241        H  0.18843805  0.95679971  0.23175208     0.16200
H242        H  0.18770406  0.06389221  0.23593600     0.16200
H243        H  0.93910535  0.79476978  0.28114406     0.14400
H244        H  0.04602288  0.79794163  0.27848499     0.14400
H245        H  0.93465649  0.20529835  0.29900143     0.14400
H246        H  0.04152515  0.20873998  0.29464573     0.14400
H247        H  0.94432231  0.99978329  0.29070179     0.27700
H248        H  0.03645200  0.00292670  0.28664076     0.27700
N249        N  0.32902557  0.00189925  0.07804666    -0.35100
N250        N  0.34038875  0.92080488  0.00722626    -0.55600
N251        N  0.34820017  0.00590019  0.93642475    -0.35100
N252        N  0.33232224  0.08660698  0.00760575    -0.55600
C253        C  0.31744579  0.95547729  0.10189901     0.28500
C254        C  0.30586166  0.04362802  0.10060281     0.28500
C255        C  0.33734060  0.96143368  0.91045249     0.28500
C256        C  0.33736161  0.05067279  0.91069284     0.28500
C257        C  0.34594087  0.88778676  0.04414278     0.37100
C258        C  0.34978580  0.88957401  0.97031993     0.37100
C259        C  0.32763487  0.11844741  0.04487485     0.37100
C260        C  0.34311114  0.12063722  0.97205234     0.37100
C261        C  0.28864608  0.96806807  0.14098792    -0.20300
C262        C  0.28113600  0.02354637  0.14009622    -0.20300
C263        C  0.32142597  0.97826992  0.86720886    -0.20300
C264        C  0.32158174  0.03451020  0.86732024    -0.20300
C265        C  0.35996647  0.83571800  0.03065121    -0.21400
C266        C  0.36210559  0.83678078  0.98385293    -0.21400
C267        C  0.33619777  0.17294589  0.03289085    -0.21400
C268        C  0.34705507  0.17417745  0.98708251    -0.21400
C269        C  0.33104099  0.90182545  0.08904944    -0.16800
C270        C  0.30763702  0.09954642  0.08750114    -0.16800
C271        C  0.33947233  0.10561439  0.92559725    -0.16700
C272        C  0.34092645  0.90607595  0.92463688    -0.16700
H273        H  0.27345853  0.94008480  0.16703131     0.16200
H274        H  0.25983800  0.04633471  0.16582446     0.16200
H275        H  0.30987003  0.95275400  0.83867848     0.16200
H276        H  0.30985340  0.06039981  0.83897844     0.16200
H277        H  0.36574682  0.80010952  0.05219161     0.14400
H278        H  0.37022767  0.80225626  0.96215082     0.14400
H279        H  0.33312770  0.20868076  0.05408156     0.14400
H280        H  0.35363725  0.21079949  0.96665176     0.14400
H281        H  0.35430876  0.00509726  0.04971313     0.27700
H282        H  0.36469335  0.00587030  0.96905657     0.27700
N283        N  0.90536054  0.34819635  0.99991850    -0.35100
N284        N  0.98288107  0.34814145  0.07484431    -0.55600
N285        N  0.06833310  0.36462555  0.00723208    -0.35100
N286        N  0.98970195  0.37443536  0.93299106    -0.55600
C287        C  0.87150847  0.34429484  0.03615056     0.28500
C288        C  0.87486944  0.36115675  0.96317841     0.28500
C289        C  0.09698169  0.37162966  0.04619477     0.28500
C290        C  0.10048806  0.38156483  0.97233344     0.28500
C291        C  0.93958788  0.32535402  0.09668756     0.37100
C292        C  0.02665208  0.33814463  0.10126008     0.37100
C293        C  0.94783371  0.36397720  0.90430679     0.37100
C294        C  0.03553628  0.36953135  0.90805907     0.37100
C295        C  0.81901665  0.35564793  0.02249261    -0.20300
C296        C  0.82118653  0.36667517  0.97646260    -0.20300
C297        C  0.14769820  0.39403692  0.03591512    -0.20300
C298        C  0.14998864  0.40005033  0.98920812    -0.20300
C299        C  0.95575111  0.30213238  0.13772112    -0.21400
C300        C  0.01087396  0.31053795  0.14073896    -0.21400
C301        C  0.96702331  0.35472367  0.86063857    -0.21400
C302        C  0.02261154  0.35795134  0.86304652    -0.21400
C303        C  0.88570066  0.32521364  0.08001459    -0.16800
C304        C  0.89264902  0.36044844  0.91729037    -0.16800
C305        C  0.08887014  0.37410152  0.92557127    -0.16700
C306        C  0.08080620  0.35275820  0.08998315    -0.16700
H307        H  0.78270631  0.35458661  0.04332408     0.16200
H308        H  0.78676173  0.37545273  0.95482740     0.16200
H309        H  0.18032680  0.40332510  0.05949473     0.16200
H310        H  0.18464835  0.41484546  0.96969542     0.16200
H311        H  0.93074562  0.28052454  0.16259505     0.14400
H312        H  0.03656913  0.29648972  0.16824753     0.14400
H313        H  0.94356964  0.34484924  0.83049019     0.14400
H314        H  0.05020959  0.35126052  0.83498879     0.14400
H315        H  0.94472339  0.33398637  0.99900737     0.27700
H316        H  0.03284826  0.34154765  0.00387560     0.27700
C317        C  0.72368822  0.27431550  0.24017398     0.88000
C318        C  0.75672014  0.31397460  0.20977363    -0.52200
C319        C  0.78693228  0.28855358  0.17754265     0.11000
C320        C  0.78130111  0.22567995  0.17905056     0.21900
C321        C  0.68970846  0.23944101  0.20728366    -0.52900
C322        C  0.71988855  0.21309519  0.17563929     0.11100
C323        C  0.76577640  0.23509588  0.26058095    -0.52500
C324        C  0.79637259  0.20984547  0.22810805     0.11600
H325        H  0.75708957  0.35810465  0.21396472     0.16100
H326        H  0.80637016  0.20483383  0.15330389     0.01900
H327        H  0.64584969  0.23466770  0.20966159     0.16500
H328        H  0.77163128  0.22923397  0.29699080     0.16200
N329        N  0.66994547  0.99582214  0.08437627    -0.35100
N330        N  0.68139774  0.07853897  0.01222157    -0.55600
N331        N  0.66035569  0.99558802  0.94320634    -0.35100
N332        N  0.64944670  0.91336532  0.01507608    -0.55600
C333        C  0.69386494  0.03720497  0.10788246     0.28500
C334        C  0.67608437  0.94945461  0.10942665     0.28500
C335        C  0.68100750  0.03671837  0.91680208     0.28500
C336        C  0.66231772  0.94914265  0.91832995     0.28500
C337        C  0.68843058  0.11138357  0.04872193     0.37100
C338        C  0.68370369  0.11123351  0.97477628     0.37100
C339        C  0.64096757  0.88216459  0.05271491     0.37100
C340        C  0.63502953  0.88219689  0.97909276     0.37100
C341        C  0.71329206  0.01716498  0.14911628    -0.20300
C342        C  0.70231991  0.96193015  0.14999012    -0.20300
C343        C  0.69406774  0.01642258  0.87418917    -0.20300
C344        C  0.68276521  0.96132275  0.87525764    -0.20300
C345        C  0.69445552  0.16537549  0.03432375    -0.21400
C346        C  0.69152896  0.16527867  0.98772419    -0.21400
C347        C  0.61987482  0.83134537  0.04071696    -0.21400
C348        C  0.61598384  0.83141458  0.99400408    -0.21400
C349        C  0.69828764  0.09271670  0.09376249    -0.16800
C350        C  0.65934083  0.89596960  0.09677426    -0.16800
C351        C  0.64661362  0.89585735  0.93316452    -0.16700
C352        C  0.68784892  0.09226382  0.92942575    -0.16700
H353        H  0.73389922  0.03973945  0.17577273     0.16200
H354        H  0.71313397  0.93406311  0.17727369     0.16200
H355        H  0.70997519  0.03886360  0.84506476     0.16200
H356        H  0.68922927  0.93345759  0.84735174     0.16200
H357        H  0.70344465  0.20106161  0.05471937     0.14400
H358        H  0.69782240  0.20091379  0.96615039     0.14400
H359        H  0.61048094  0.79706375  0.06315985     0.14400
H360        H  0.60305377  0.79716074  0.97324676     0.14400
H361        H  0.64770927  0.99961476  0.05445662     0.27700
H362        H  0.64261437  0.99958613  0.97511383     0.27700
C363        C  0.69497416  0.17435302  0.14295764    -0.14900
C364        C  0.72261042  0.13207520  0.12655159    -0.30100
H365        H  0.65269554  0.17933852  0.13342716     0.14100
H366        H  0.76333122  0.12408433  0.13874250     0.14700
C367        C  0.82582571  0.31887964  0.14774320    -0.14900
C368        C  0.84206894  0.29873041  0.10771848    -0.30100
H369        H  0.84246116  0.35782652  0.15934278     0.14100
H370        H  0.82243406  0.26241040  0.09382560     0.14700
C371        C  0.84199042  0.17237011  0.23697963    -0.14900
C372        C  0.84679847  0.14140774  0.27475040    -0.30100
H373        H  0.87110206  0.16719746  0.20952838     0.14100
H374        H  0.81588694  0.14196623  0.30113842     0.14700
C375        C  0.12326575  0.34382869  0.12517052    -0.14900
C376        C  0.15855301  0.30307248  0.12030235    -0.30100
H377        H  0.12027270  0.36506157  0.15745614     0.14100
H378        H  0.15673973  0.27849671  0.08957816     0.14700
C379        C  0.30057018  0.18178750  0.13689636    -0.14900
C380        C  0.27760049  0.13815128  0.11663311    -0.30100
H381        H  0.34402999  0.18922381  0.13361023     0.14100
H382        H  0.23542330  0.12751906  0.12325384     0.14700
C383        C  0.14758272  0.16377021  0.22174506    -0.14900
C384        C  0.12691632  0.15119859  0.26308328    -0.30100
H385        H  0.13456631  0.13954741  0.19266584     0.14100
H386        H  0.13656532  0.17596914  0.29258253     0.14700
C387        C  0.13081725  0.63985252  0.12141081    -0.14900
C388        C  0.15089431  0.69126726  0.12005047    -0.30100
H389        H  0.13858323  0.61319196  0.15038342     0.16600
H390        H  0.13831187  0.71793681  0.09226118     0.14700
C391        C  0.27447949  0.82654510  0.11845436    -0.14900
C392        C  0.31992354  0.85714177  0.12269989    -0.30100
H393        H  0.24894143  0.83291035  0.08869335     0.14100
H394        H  0.34345767  0.85588201  0.15399483     0.14700
C395        C  0.13294951  0.83443071  0.21704528    -0.14900
C396        C  0.13188601  0.86481615  0.25501955    -0.30100
H397        H  0.10243030  0.84098507  0.19088919     0.14100
H398        H  0.16450300  0.86264532  0.27983034     0.14700
C399        C  0.83667804  0.68423006  0.12505773    -0.14900
C400        C  0.84891711  0.63114065  0.12155983    -0.30100
H401        H  0.85665700  0.71312428  0.10183770     0.14100
H402        H  0.83183510  0.60027384  0.14443982     0.14700
C403        C  0.71231403  0.81820775  0.12256002    -0.14900
C404        C  0.66976321  0.85067272  0.12955990    -0.30100
H405        H  0.73669411  0.82436225  0.09194893     0.14100
H406        H  0.64815072  0.84945369  0.16186611     0.14700
C407        C  0.85061438  0.85664295  0.25990667    -0.14900
C408        C  0.85106553  0.82580260  0.22222884    -0.30100
H409        H  0.81679663  0.85383090  0.28363842     0.14100
H410        H  0.88258111  0.83309928  0.19681998     0.14700
C411        C  0.13675839  0.18105849  0.80574294    -0.14900
C412        C  0.13699918  0.14354475  0.77262774    -0.30100
H413        H  0.10408836  0.18008874  0.83070507     0.14100
H414        H  0.17211642  0.13999901  0.75048188     0.14700
C415        C  0.28224162  0.17860354  0.89672592    -0.14900
C416        C  0.32738914  0.14932224  0.89156468    -0.30100
H417        H  0.25630978  0.16996974  0.92604395     0.14100
H418        H  0.35154569  0.15293048  0.86065852     0.14700
C419        C  0.13478831  0.36336216  0.89417735    -0.14900
C420        C  0.16506646  0.31912043  0.90178039    -0.30100
H421        H  0.13701458  0.38459428  0.86150690     0.14100
H422        H  0.15790203  0.29497560  0.93260821     0.14700
C423        C  0.15323622  0.69909921  0.89047914    -0.14900
C424        C  0.13056271  0.64873610  0.88834682    -0.30100
H425        H  0.14009263  0.72613388  0.91743677     0.14100
H426        H  0.13931488  0.62171390  0.86019868     0.14700
C427        C  0.11359308  0.86009750  0.80997798    -0.14900
C428        C  0.15524370  0.84241147  0.78529685    -0.30100
H429        H  0.10206806  0.83974407  0.84165885     0.14100
H430        H  0.16293090  0.86020133  0.75172868     0.14700
C431        C  0.28266996  0.83253306  0.89475095    -0.14900
C432        C  0.32847330  0.86285941  0.89050365    -0.30100
H433        H  0.25619230  0.83964398  0.92370738     0.14100
H434        H  0.35294031  0.86074220  0.85976052     0.14700
C435        C  0.68439703  0.17492628  0.87950225    -0.14900
C436        C  0.71056015  0.13052687  0.89440741    -0.30100
H437        H  0.64332673  0.18227363  0.89122389     0.14100
H438        H  0.74968909  0.12034620  0.88015486     0.14700
C439        C  0.86300003  0.15584068  0.79572038    -0.14900
C440        C  0.81833428  0.16944766  0.77261965    -0.30100
H441        H  0.87584589  0.17935017  0.82522225     0.14100
H442        H  0.80829797  0.14904308  0.74083959     0.14700
C443        C  0.85145507  0.34867792  0.88146246    -0.14900
C444        C  0.82377666  0.30085435  0.88289344    -0.30100
H445        H  0.84764172  0.37643077  0.85256894     0.14100
H446        H  0.83243441  0.27195931  0.91023757     0.14700
C447        C  0.69242796  0.81515574  0.90541694    -0.14900
C448        C  0.65202909  0.85065790  0.89980061    -0.30100
H449        H  0.71659912  0.81739764  0.93641219     0.14100
H450        H  0.63121213  0.85342935  0.86721834     0.14700
C451        C  0.81605643  0.68295732  0.89762643    -0.14900
C452        C  0.84644260  0.63912937  0.88929099    -0.30100
H453        H  0.82219134  0.70443920  0.92960753     0.14100
H454        H  0.84539346  0.62015661  0.85591757     0.14700
C455        C  0.83676670  0.83346617  0.81210972    -0.14900
C456        C  0.83868880  0.87085166  0.77842362    -0.30100
H457        H  0.86790823  0.83443333  0.83838025     0.14100
H458        H  0.80525458  0.87426053  0.75447406     0.14700
C459        C  0.69003886  0.70151161  0.76167042    -0.17000
C460        C  0.66575126  0.68090276  0.73003649     0.07100
C461        C  0.63750789  0.65654297  0.69287007     0.09000
C462        C  0.61311962  0.63511007  0.66166946    -0.17800
C463        C  0.68486385  0.31906434  0.75785366    -0.17000
C464        C  0.65867010  0.34413767  0.73043336     0.07100
C465        C  0.62858582  0.37025433  0.69611783     0.09000
C466        C  0.60383567  0.39147928  0.66560869    -0.17800
C467        C  0.36661309  0.63922668  0.66178485    -0.17000
C468        C  0.34436407  0.65897359  0.69419799     0.07100
C469        C  0.31777338  0.68067853  0.73248649     0.09000
C470        C  0.29331703  0.70086020  0.76355165    -0.17800
C471        C  0.70288913  0.68803071  0.25630536    -0.17000
C472        C  0.67581203  0.66660532  0.28597903     0.07100
C473        C  0.64413883  0.64317230  0.32151934     0.09000
C474        C  0.61724586  0.62341634  0.35207261    -0.17800
C475        C  0.28830563  0.31302292  0.76464621    -0.17000
C476        C  0.31228495  0.33722608  0.73443956     0.07100
C477        C  0.33919319  0.36521582  0.69818234     0.09000
C478        C  0.36174580  0.38891073  0.66693773    -0.17800
C479        C  0.27847266  0.69966989  0.25565745    -0.17000
C480        C  0.30403651  0.67743084  0.28562787     0.07100
C481        C  0.33389796  0.65209507  0.32125876     0.09000
C482        C  0.35909126  0.63056102  0.35181910    -0.17800
C483        C  0.60299550  0.38154486  0.35783585    -0.17000
C484        C  0.62903178  0.35618641  0.33057083     0.07100
C485        C  0.66180298  0.32674017  0.30010500     0.09000
C486        C  0.69033370  0.30237045  0.27400087    -0.17800
C487        C  0.35171956  0.39188994  0.35711679    -0.17000
C488        C  0.32709825  0.36985434  0.32659520     0.07100
C489        C  0.29938779  0.34325359  0.29063923     0.09000
C490        C  0.27676824  0.31856400  0.26044871    -0.17800
loop_ 
_geom_bond_atom_site_label_1 
_geom_bond_atom_site_label_2 
_geom_bond_distance 
_geom_bond_site_symmetry_2 
_ccdc_geom_bond_type 
O1          Zr13   2.451       .  S
O1            C3   1.288       .  A
O2          Zr39   2.418       .  S
O2            C3   1.284       .  A
C3          C487   1.436       .  S
O4          Zr16   2.455       .  S
O4            C6   1.289       .  A
O5          Zr40   2.410       .  S
O5            C6   1.282       .  A
C6          C467   1.434       .  S
O7          Zr16   2.454       .  S
O7            C9   1.289       .  A
O8          Zr39   2.434       .  S
O8            C9   1.287       .  A
C9          C482   1.446       .  S
O10         Zr13   2.454       .  S
O10          C12   1.289       .  A
O11         Zr40   2.426       .  S
O11          C12   1.285       .  A
C12         C478   1.441       .  S
Zr13         O14   2.435       .  S
Zr13         O15   2.438       .  S
Zr13         O19   2.373       .  S
Zr13         O20   2.372       .  S
Zr13         O43   2.375       .  S
Zr13         O45   2.375       .  S
O14          H57   0.990       .  S
O15          H56   0.990       .  S
O15          H60   0.990       .  S
Zr16         O17   2.436       .  S
Zr16         O18   2.433       .  S
Zr16         O20   2.377       .  S
Zr16         O19   2.373       .  S
Zr16         O44   2.374       .  S
Zr16         O46   2.375       .  S
O17          H58   0.990       .  S
O17          H61   0.990       .  S
O18          H51   0.990       .  S
O19         Zr39   2.379       .  S
O20         Zr40   2.382       .  S
O20          H47   0.975       .  S
O21         Zr33   2.446       .  S
O21          C23   1.287       .  A
O22         Zr40   2.408       .  S
O22          C23   1.282       .  A
C23         C466   1.429       .  S
O24         Zr36   2.445       .  S
O24          C26   1.287       .  A
O25         Zr39   2.423       .  S
O25          C26   1.285       .  A
C26         C474   1.436       .  S
O27         Zr36   2.461       .  S
O27          C29   1.290       .  A
O28         Zr40   2.427       .  S
O28          C29   1.286       .  A
C29         C462   1.445       .  S
O30         Zr33   2.440       .  S
O30          C32   1.286       .  A
O31         Zr39   2.432       .  S
O31          C32   1.286       .  A
C32         C483   1.437       .  S
Zr33         O34   2.437       .  S
Zr33         O35   2.433       .  S
Zr33         O41   2.370       .  S
Zr33         O42   2.371       .  S
Zr33         O45   2.375       .  S
Zr33         O43   2.371       .  S
O34          H54   0.990       .  S
O34          H59   0.990       .  S
O35          H55   0.990       .  S
Zr36         O37   2.433       .  S
Zr36         O38   2.436       .  S
Zr36         O42   2.375       .  S
Zr36         O41   2.369       .  S
Zr36         O46   2.374       .  S
Zr36         O44   2.378       .  S
O37          H53   0.990       .  S
O38          H52   0.990       .  S
O38          H62   0.990       .  S
Zr39         O42   2.379       .  S
Zr39         O44   2.385       .  S
Zr39         O45   2.387       .  S
Zr40         O41   2.379       .  S
Zr40         O43   2.379       .  S
Zr40         O46   2.380       .  S
O41          H49   0.969       .  S
O44          H48   0.967       .  S
O45          H50   0.968       .  S
C63          C64   1.546       .  S
C63          C69   1.537       .  S
C63          C67   1.543       .  S
C63         C459   1.478       .  S
C64          H71   1.086       .  S
C64          C65   1.369       .  D
C65          C66   1.526       .  S
C65         C451   1.479       .  S
C66          C70   1.529       .  S
C66          C68   1.528       .  S
C66          H72   1.112       .  S
C67          H73   1.086       .  S
C67          C68   1.369       .  D
C68         C447   1.477       .  S
C69          H74   1.086       .  S
C69          C70   1.367       .  D
C70         C455   1.475       .  S
C75          C76   1.534       .  S
C75          C81   1.534       .  S
C75          C79   1.536       .  S
C75         C463   1.461       .  S
C76          H83   1.086       .  S
C76          C77   1.363       .  D
C77          C78   1.541       .  S
C77         C435   1.482       .  S
C78          C82   1.537       .  S
C78          C80   1.533       .  S
C78          H84   1.108       .  S
C79          H85   1.086       .  S
C79          C80   1.367       .  D
C80         C444   1.477       .  S
C81          H86   1.087       .  S
C81          C82   1.361       .  D
C82         C440   1.474       .  S
C87          C88   1.538       .  S
C87          C93   1.529       .  S
C87          C91   1.541       .  S
C87         C470   1.467       .  S
C88          H95   1.086       .  S
C88          C89   1.368       .  D
C89          C90   1.534       .  S
C89         C431   1.480       .  S
C90          C94   1.542       .  S
C90          C92   1.536       .  S
C90          H96   1.109       .  S
C91          H97   1.085       .  S
C91          C92   1.371       .  D
C92         C423   1.486       .  S
C93          H98   1.087       .  S
C93          C94   1.359       .  D
C94         C428   1.475       .  S
C99         C100   1.538       .  S
C99         C105   1.540       .  S
C99         C103   1.540       .  S
C99         C475   1.472       .  S
C100        H107   1.086       .  S
C100        C101   1.367       .  D
C101        C102   1.529       .  S
C101        C411   1.474       .  S
C102        C106   1.529       .  S
C102        C104   1.527       .  S
C102        H108   1.112       .  S
C103        H109   1.086       .  S
C103        C104   1.366       .  D
C104        C420   1.475       .  S
C105        H110   1.086       .  S
C105        C106   1.369       .  D
C106        C415   1.475       .  S
N111        C116   1.349   1_655  A
N111        C115   1.353       .  A
N111        H143   1.037       .  S
N112        C119   1.351   1_545  A
N112        C120   1.350       .  A
N113        C118   1.352   1_655  A
N113        C117   1.349       .  A
N113        H144   1.037       .  S
N114        C121   1.351   1_545  A
N114        C122   1.352       .  A
C115        C123   1.388       .  A
C115        C131   1.415       .  A
C116        C132   1.407       .  A
C116        C124   1.386       .  A
C117        C125   1.385       .  A
C117        C134   1.407       .  A
C118        C133   1.415       .  A
C118        C126   1.388       .  A
C119        C131   1.409       .  A
C119        C127   1.385       .  A
C120        C134   1.411       .  A
C120        C128   1.386       .  A
C121        C129   1.387       .  A
C121        C132   1.413       .  A
C122        C130   1.387       .  A
C122        C133   1.413       .  A
C123        C124   1.374   1_655  A
C123        H135   1.082       .  S
C124        H136   1.083       .  S
C125        C126   1.375   1_655  A
C125        H137   1.083       .  S
C126        H138   1.082       .  S
C127        C128   1.372   1_565  A
C127        H139   1.082       .  S
C128        H140   1.080       .  S
C129        C130   1.373   1_565  A
C129        H141   1.082       .  S
C130        H142   1.083       .  S
C131        C456   1.484       .  S
C132        C427   1.477       .  S
C133        C412   1.485       .  S
C134        C439   1.476       .  S
C145        C146   1.537       .  S
C145        C151   1.534       .  S
C145        C149   1.540       .  S
C145        C471   1.468       .  S
C146        H153   1.086       .  S
C146        C147   1.367       .  D
C147        C148   1.532       .  S
C147        C403   1.477       .  S
C148        C152   1.533       .  S
C148        C150   1.533       .  S
C148        H154   1.112       .  S
C149        H155   1.085       .  S
C149        C150   1.370       .  D
C150        C399   1.481       .  S
C151        H156   1.086       .  S
C151        C152   1.366       .  D
C152        C408   1.478       .  S
C157        C158   1.535       .  S
C157        C163   1.540       .  S
C157        C161   1.542       .  S
C157        C479   1.478       .  S
C158        H165   1.086       .  S
C158        C159   1.368       .  D
C159        C160   1.535       .  S
C159        C395   1.483       .  S
C160        C164   1.532       .  S
C160        C162   1.532       .  S
C160        H166   1.112       .  S
C161        H167   1.085       .  S
C161        C162   1.370       .  D
C162        C388   1.483       .  S
C163        H168   1.086       .  S
C163        C164   1.369       .  D
C164        C391   1.480       .  S
N169        C174   1.353   1_554  A
N169        C173   1.353       .  A
N169        H201   1.033       .  S
N170        C177   1.353       .  A
N170        C178   1.353   1_655  A
N171        C176   1.353   1_554  A
N171        C175   1.353       .  A
N171        H202   1.034       .  S
N172        C179   1.354       .  A
N172        C180   1.354   1_655  A
C173        C181   1.386       .  A
C173        C189   1.415       .  A
C174        C190   1.421       .  A
C174        C182   1.388       .  A
C175        C183   1.386       .  A
C175        C192   1.416       .  A
C176        C191   1.418       .  A
C176        C184   1.387       .  A
C177        C189   1.415       .  A
C177        C185   1.387       .  A
C178        C192   1.414       .  A
C178        C186   1.387       .  A
C179        C187   1.388       .  A
C179        C190   1.419       .  A
C180        C188   1.386       .  A
C180        C191   1.417       .  A
C181        C182   1.377   1_554  A
C181        H193   1.082       .  S
C182        H194   1.082       .  S
C183        C184   1.377   1_554  A
C183        H195   1.082       .  S
C184        H196   1.082       .  S
C185        C186   1.370   1_655  A
C185        H197   1.082       .  S
C186        H198   1.082       .  S
C187        C188   1.373   1_655  A
C187        H199   1.082       .  S
C188        H200   1.082       .  S
C189        C400   1.485       .  S
C190        C452   1.493       .  S
C191        C424   1.490       .  S
C192        C387   1.487       .  S
C203        C204   1.535       .  S
C203        C209   1.535       .  S
C203        C207   1.536       .  S
C203        C490   1.468       .  S
C204        H211   1.087       .  S
C204        C205   1.364       .  D
C205        C206   1.543       .  S
C205        C379   1.483       .  S
C206        C210   1.535       .  S
C206        C208   1.534       .  S
C206        H212   1.108       .  S
C207        H213   1.086       .  S
C207        C208   1.368       .  D
C208        C376   1.480       .  S
C209        H214   1.084       .  S
C209        C210   1.369       .  D
C210        C383   1.485       .  S
N215        C220   1.355   1_565  A
N215        C219   1.354       .  A
N215        H247   1.037       .  S
N216        C223   1.351       .  A
N216        C224   1.352   1_655  A
N217        C222   1.355       .  A
N217        C221   1.355   1_545  A
N217        H248   1.037       .  S
N218        C225   1.353       .  A
N218        C226   1.352   1_655  A
C219        C227   1.388       .  A
C219        C235   1.416       .  A
C220        C236   1.417       .  A
C220        C228   1.387       .  A
C221        C229   1.386       .  A
C221        C238   1.415       .  A
C222        C237   1.421       .  A
C222        C230   1.390       .  A
C223        C235   1.414       .  A
C223        C231   1.387       .  A
C224        C238   1.413       .  A
C224        C232   1.386       .  A
C225        C233   1.386       .  A
C225        C236   1.415       .  A
C226        C234   1.388       .  A
C226        C237   1.416       .  A
C227        C228   1.374   1_565  A
C227        H239   1.082       .  S
C228        H240   1.082       .  S
C229        C230   1.373   1_565  A
C229        H241   1.083       .  S
C230        H242   1.081       .  S
C231        C232   1.371   1_655  A
C231        H243   1.082       .  S
C232        H244   1.082       .  S
C233        C234   1.373   1_655  A
C233        H245   1.082       .  S
C234        H246   1.082       .  S
C235        C407   1.485       .  S
C236        C372   1.490       .  S
C237        C384   1.488       .  S
C238        C396   1.487       .  S
N249        C254   1.355       .  A
N249        C253   1.354   1_545  A
N249        H281   1.039       .  S
N250        C257   1.353       .  A
N250        C258   1.351   1_554  A
N251        C256   1.354       .  A
N251        C255   1.355   1_545  A
N251        H282   1.039       .  S
N252        C259   1.353       .  A
N252        C260   1.351   1_554  A
C253        C261   1.387       .  A
C253        C269   1.413       .  A
C254        C270   1.416       .  A
C254        C262   1.389       .  A
C255        C263   1.388       .  A
C255        C272   1.416       .  A
C256        C271   1.416       .  A
C256        C264   1.388       .  A
C257        C269   1.413       .  A
C257        C265   1.386       .  A
C258        C272   1.413       .  A
C258        C266   1.386       .  A
C259        C267   1.387       .  A
C259        C270   1.414       .  A
C260        C268   1.386       .  A
C260        C271   1.415       .  A
C261        C262   1.372   1_565  A
C261        H273   1.083       .  S
C262        H274   1.082       .  S
C263        C264   1.375   1_565  A
C263        H275   1.082       .  S
C264        H276   1.082       .  S
C265        C266   1.372   1_554  A
C265        H277   1.082       .  S
C266        H278   1.082       .  S
C267        C268   1.369   1_554  A
C267        H279   1.080       .  S
C268        H280   1.082       .  S
C269        C392   1.487       .  S
C270        C380   1.485       .  S
C271        C416   1.489       .  S
C272        C432   1.489       .  S
N283        C288   1.352       .  A
N283        C287   1.352   1_556  A
N283        H315   1.036       .  S
N284        C291   1.353       .  A
N284        C292   1.352   1_655  A
N285        C290   1.351   1_554  A
N285        C289   1.353       .  A
N285        H316   1.037       .  S
N286        C293   1.353       .  A
N286        C294   1.352   1_655  A
C287        C295   1.386       .  A
C287        C303   1.410       .  A
C288        C304   1.414       .  A
C288        C296   1.388       .  A
C289        C297   1.387       .  A
C289        C306   1.415       .  A
C290        C305   1.413       .  A
C290        C298   1.386       .  A
C291        C303   1.415       .  A
C291        C299   1.387       .  A
C292        C306   1.413       .  A
C292        C300   1.386       .  A
C293        C301   1.386       .  A
C293        C304   1.412       .  A
C294        C302   1.387       .  A
C294        C305   1.413       .  A
C295        C296   1.374   1_554  A
C295        H307   1.083       .  S
C296        H308   1.082       .  S
C297        C298   1.376   1_554  A
C297        H309   1.082       .  S
C298        H310   1.082       .  S
C299        C300   1.373   1_655  A
C299        H311   1.082       .  S
C300        H312   1.083       .  S
C301        C302   1.372   1_655  A
C301        H313   1.082       .  S
C302        H314   1.082       .  S
C303        C368   1.483       .  S
C304        C443   1.487       .  S
C305        C419   1.486       .  S
C306        C375   1.487       .  S
C317        C318   1.534       .  S
C317        C323   1.542       .  S
C317        C321   1.531       .  S
C317        C486   1.469       .  S
C318        H325   1.087       .  S
C318        C319   1.363       .  D
C319        C320   1.541       .  S
C319        C367   1.481       .  S
C320        C324   1.533       .  S
C320        C322   1.542       .  S
C320        H326   1.108       .  S
C321        H327   1.087       .  S
C321        C322   1.362       .  D
C322        C363   1.478       .  S
C323        H328   1.085       .  S
C323        C324   1.371       .  D
C324        C371   1.484       .  S
N329        C334   1.356       .  A
N329        C333   1.355   1_565  A
N329        H361   1.038       .  S
N330        C337   1.352       .  A
N330        C338   1.353   1_554  A
N331        C336   1.356       .  A
N331        C335   1.355   1_565  A
N331        H362   1.038       .  S
N332        C339   1.350       .  A
N332        C340   1.350   1_554  A
C333        C341   1.389       .  A
C333        C349   1.417       .  A
C334        C350   1.416       .  A
C334        C342   1.387       .  A
C335        C343   1.387       .  A
C335        C352   1.417       .  A
C336        C351   1.417       .  A
C336        C344   1.387       .  A
C337        C349   1.415       .  A
C337        C345   1.387       .  A
C338        C352   1.416       .  A
C338        C346   1.388       .  A
C339        C347   1.386       .  A
C339        C350   1.410       .  A
C340        C348   1.386       .  A
C340        C351   1.412       .  A
C341        C342   1.372   1_545  A
C341        H353   1.082       .  S
C342        H354   1.082       .  S
C343        C344   1.370   1_545  A
C343        H355   1.080       .  S
C344        H356   1.082       .  S
C345        C346   1.368   1_554  A
C345        H357   1.081       .  S
C346        H358   1.081       .  S
C347        C348   1.372   1_554  A
C347        H359   1.082       .  S
C348        H360   1.082       .  S
C349        C364   1.484       .  S
C350        C404   1.486       .  S
C351        C448   1.489       .  S
C352        C436   1.485       .  S
C363        H365   1.087       .  S
C363        C364   1.340       .  D
C364        H366   1.085       .  S
C367        H369   1.087       .  S
C367        C368   1.340       .  D
C368        H370   1.086       .  S
C371        H373   1.087       .  S
C371        C372   1.342       .  D
C372        H374   1.085       .  S
C375        H377   1.086       .  S
C375        C376   1.342       .  D
C376        H378   1.087       .  S
C379        H381   1.087       .  S
C379        C380   1.341       .  D
C380        H382   1.083       .  S
C383        H385   1.087       .  S
C383        C384   1.345       .  D
C384        H386   1.084       .  S
C387        H389   1.085       .  S
C387        C388   1.342       .  D
C388        H390   1.088       .  S
C391        H393   1.087       .  S
C391        C392   1.341       .  D
C392        H394   1.086       .  S
C395        H397   1.087       .  S
C395        C396   1.344       .  D
C396        H398   1.085       .  S
C399        H401   1.088       .  S
C399        C400   1.342       .  D
C400        H402   1.084       .  S
C403        H405   1.087       .  S
C403        C404   1.343       .  D
C404        H406   1.086       .  S
C407        H409   1.086       .  S
C407        C408   1.342       .  D
C408        H410   1.087       .  S
C411        H413   1.087       .  S
C411        C412   1.341       .  D
C412        H414   1.086       .  S
C415        H417   1.087       .  S
C415        C416   1.342       .  D
C416        H418   1.086       .  S
C419        H421   1.086       .  S
C419        C420   1.342       .  D
C420        H422   1.088       .  S
C423        H425   1.087       .  S
C423        C424   1.344       .  D
C424        H426   1.085       .  S
C427        H429   1.085       .  S
C427        C428   1.335       .  D
C428        H430   1.087       .  S
C431        H433   1.087       .  S
C431        C432   1.344       .  D
C432        H434   1.086       .  S
C435        H437   1.087       .  S
C435        C436   1.342       .  D
C436        H438   1.084       .  S
C439        H441   1.086       .  S
C439        C440   1.338       .  D
C440        H442   1.087       .  S
C443        H445   1.086       .  S
C443        C444   1.343       .  D
C444        H446   1.087       .  S
C447        H449   1.087       .  S
C447        C448   1.341       .  D
C448        H450   1.086       .  S
C451        H453   1.087       .  S
C451        C452   1.342       .  D
C452        H454   1.086       .  S
C455        H457   1.087       .  S
C455        C456   1.340       .  D
C456        H458   1.086       .  S
C459        C460   1.212       .  T
C460        C461   1.422       .  S
C461        C462   1.212       .  T
C463        C464   1.202       .  T
C464        C465   1.405       .  S
C465        C466   1.202       .  T
C467        C468   1.205       .  T
C468        C469   1.411       .  S
C469        C470   1.205       .  T
C471        C472   1.206       .  T
C472        C473   1.412       .  S
C473        C474   1.206       .  T
C475        C476   1.209       .  T
C476        C477   1.417       .  S
C477        C478   1.209       .  T
C479        C480   1.212       .  T
C480        C481   1.422       .  S
C481        C482   1.212       .  T
C483        C484   1.207       .  T
C484        C485   1.414       .  S
C485        C486   1.207       .  T
C487        C488   1.206       .  T
C488        C489   1.412       .  S
C489        C490   1.206       .  T
