geometry optimzed in LAMMPS
_audit_creation_date              2020-12-01 
_audit_creation_method            'lammps2cif' 
_symmetry_space_group_name_H-M    'P1' 
_symmetry_Int_Tables_number       1 
_symmetry_cell_setting            triclinic 
loop_ 
_symmetry_equiv_pos_as_xyz 
  x,y,z 
_cell_length_a                    40.71436481 
_cell_length_b                    40.65388506522278 
_cell_length_c                    40.665440943813635 
_cell_angle_alpha                 89.79258748855882 
_cell_angle_beta                  89.66782263636453 
_cell_angle_gamma                 90.09011702306805 
loop_ 
_atom_site_label 
_atom_site_type_symbol 
_atom_site_fract_x 
_atom_site_fract_y 
_atom_site_fract_z 
_atom_site_charge 
C1          C  0.36373232  0.36289112  0.36518445     0.46200
H2          H  0.37944327  0.37849874  0.38028818    -0.02800
C3          C  0.32758619  0.32645245  0.32931440     0.46300
H4          H  0.31178907  0.31080239  0.31359432    -0.02800
C5          C  0.32714090  0.36958573  0.37116741    -0.16500
C6          C  0.37056036  0.36870310  0.32856682    -0.16300
C7          C  0.36931847  0.32633954  0.37243153    -0.16600
C8          C  0.30759659  0.35018901  0.35182760    -0.16600
C9          C  0.35104671  0.34937260  0.30920526    -0.16200
C10         C  0.34997284  0.30660081  0.35323490    -0.16500
C11         C  0.36288131  0.01818810  0.36406672     0.46200
H12         H  0.37888074  0.50309672  0.37945425    -0.02800
C13         C  0.32637746  0.05395110  0.32774826     0.46300
H14         H  0.31032718  0.06933488  0.31195712    -0.02800
C15         C  0.36900327  0.01158733  0.32747131    -0.16500
C16         C  0.32642439  0.01130920  0.37055786    -0.16300
C17         C  0.36856988  0.05494651  0.37035265    -0.16600
C18         C  0.34963377  0.03083886  0.30780210    -0.16600
C19         C  0.30671571  0.03045880  0.35107758    -0.16200
C20         C  0.34895248  0.07424274  0.35098737    -0.16500
C21         C  0.01905819  0.01972926  0.36151563     0.46200
H22         H  0.50393443  0.50415829  0.37754579    -0.02800
C23         C  0.05485002  0.05594134  0.32436153     0.46300
H24         H  0.07042484  0.07172755  0.30824292    -0.02800
C25         C  0.05574795  0.01314193  0.36691174    -0.16500
C26         C  0.01180948  0.01377801  0.32508943    -0.16300
C27         C  0.01287664  0.05633686  0.36775641    -0.16600
C28         C  0.07501271  0.03262966  0.34710379    -0.16600
C29         C  0.03120500  0.03287235  0.30499044    -0.16200
C30         C  0.03213255  0.07588835  0.34798665    -0.16500
C31         C  0.01979099  0.36440002  0.36278476     0.46200
H32         H  0.50435904  0.37974142  0.37858703    -0.02800
C33         C  0.05521426  0.32769913  0.32611853     0.46300
H34         H  0.07067888  0.31174816  0.31023627    -0.02800
C35         C  0.05649231  0.37024527  0.36870236    -0.16500
C36         C  0.01276891  0.32788609  0.36895950    -0.16300
C37         C  0.01375438  0.37122721  0.32627665    -0.16600
C38         C  0.07564172  0.35053053  0.34911867    -0.16600
C39         C  0.03181597  0.30809730  0.34949867    -0.16200
C40         C  0.03270537  0.35165448  0.30640664    -0.16500
C41         C  0.02166331  0.36420949  0.01765880     0.46200
H42         H  0.50588536  0.37955987  0.50231914    -0.02800
C43         C  0.05747577  0.32774484  0.05390371     0.46300
H44         H  0.07310428  0.31176993  0.06952744    -0.02800
C45         C  0.05828192  0.37022045  0.01095663    -0.16500
C46         C  0.01560570  0.37086825  0.05431941    -0.16300
C47         C  0.01525802  0.32763503  0.01133793    -0.16600
C48         C  0.07766924  0.35038119  0.03016500    -0.16600
C49         C  0.03488365  0.35141145  0.07390651    -0.16200
C50         C  0.03423733  0.30797880  0.03091946    -0.16500
C51         C  0.36524527  0.36275504  0.02077633     0.46200
H52         H  0.38038425  0.37837941  0.50485507    -0.02800
C53         C  0.32949056  0.32602092  0.05733880     0.46300
H54         H  0.31401352  0.30997173  0.07327833    -0.02800
C55         C  0.37112057  0.36963570  0.05730061    -0.16500
C56         C  0.32859117  0.36805792  0.01412760    -0.16300
C57         C  0.37268532  0.32626549  0.01530989    -0.16600
C58         C  0.35177474  0.35006930  0.07704769    -0.16600
C59         C  0.30932353  0.34807964  0.03347249    -0.16200
C60         C  0.35340820  0.30648137  0.03480856    -0.16500
C61         C  0.02032731  0.02005904  0.01624176     0.46200
H62         H  0.50478569  0.50440739  0.50099321    -0.02800
C63         C  0.05625426  0.05621717  0.05265144     0.46300
H64         H  0.07185961  0.07204146  0.06839872    -0.02800
C65         C  0.05703050  0.01374819  0.01022347    -0.16500
C66         C  0.01452813  0.05659540  0.00931085    -0.16300
C67         C  0.01324465  0.01410008  0.05282853    -0.16600
C68         C  0.07644573  0.03312216  0.02962527    -0.16600
C69         C  0.03374958  0.07611757  0.02880248    -0.16200
C70         C  0.03239959  0.03343487  0.07249992    -0.16500
C71         C  0.36469715  0.01891873  0.01902130     0.46200
H72         H  0.38022341  0.50369138  0.50320077    -0.02800
C73         C  0.32840278  0.05487556  0.05548877     0.46300
H74         H  0.31261791  0.07052368  0.07136036    -0.02800
C75         C  0.32807117  0.01308703  0.01250776    -0.16500
C76         C  0.37035986  0.01176039  0.05558178    -0.16300
C77         C  0.37166270  0.05556606  0.01336573    -0.16600
C78         C  0.30852359  0.03255165  0.03177959    -0.16600
C79         C  0.35103891  0.03114854  0.07529448    -0.16200
C80         C  0.35200969  0.07489210  0.03277901    -0.16500
O81         O  0.40682632  0.47147014  0.03828553    -0.72200
O82         O  0.47819173  0.41064006  0.03747346    -0.73200
O83         O  0.41191066  0.40556041  0.03947875    -0.61800
O84         O  0.47296242  0.47698045  0.03639580    -0.70200
O85         O  0.48043115  0.47728929  0.08987383    -0.69800
O86         O  0.40584295  0.40548834  0.09316891    -0.61000
O87         O  0.47902628  0.40411225  0.09108921    -0.73500
O88         O  0.40741889  0.47872837  0.09178799    -0.72300
Cu89       Cu  0.44246285  0.44110662  0.03687104     1.04600
Cu90       Cu  0.44325893  0.44143270  0.09418985     1.04300
C91         C  0.39577865  0.48613334  0.06336694     0.94000
C92         C  0.49000674  0.39636724  0.06241865     0.93100
C93         C  0.39746223  0.39448368  0.06482042     0.85300
C94         C  0.48768528  0.48853791  0.06111082     0.91600
O95         O  0.41206467  0.40455276  0.34480722    -0.72200
O96         O  0.47075118  0.47816137  0.34298137    -0.73200
O97         O  0.40488990  0.47056869  0.34432603    -0.61800
O98         O  0.47814672  0.41228194  0.34351917    -0.70200
O99         O  0.47642702  0.40371172  0.29023990    -0.69800
O100        O  0.40573946  0.47854744  0.29088227    -0.61000
O101        O  0.47857461  0.47662783  0.28948720    -0.73500
O102        O  0.40381877  0.40518819  0.29147236    -0.72300
Cu103      Cu  0.44148586  0.44138595  0.34496915     1.04600
Cu104      Cu  0.44107921  0.44101303  0.28777315     1.04300
C105        C  0.39673394  0.39364666  0.32014811     0.94000
C106        C  0.48580088  0.48866147  0.31773766     0.93100
C107        C  0.39408465  0.48568807  0.31943371     0.85300
C108        C  0.48862198  0.39701504  0.31855276     0.91600
O109        O  0.04035845  0.47539907  0.47192406    -0.72200
O110        O  0.03994247  0.40842578  0.40750765    -0.73200
O111        O  0.04102782  0.40937007  0.47331051    -0.61800
O112        O  0.03942706  0.47440637  0.40587060    -0.70200
O113        O  0.09305916  0.47910455  0.40229484    -0.69800
O114        O  0.09472995  0.40583301  0.47595562    -0.61000
O115        O  0.09357592  0.40538808  0.40298983    -0.73500
O116        O  0.09403644  0.47880110  0.47566476    -0.72300
Cu117      Cu  0.03923213  0.44191093  0.43971505     1.04600
Cu118      Cu  0.09659461  0.44234322  0.43913942     1.04300
C119        C  0.06532184  0.48830002  0.48488145     0.94000
C120        C  0.06487144  0.39564938  0.39415756     0.93100
C121        C  0.06619298  0.39621201  0.48571087     0.85300
C122        C  0.06424798  0.48783302  0.39270869     0.91600
O123        O  0.41290023  0.03913524  0.47719022    -0.72200
O124        O  0.47090313  0.03948266  0.40291159    -0.73200
O125        O  0.47875000  0.03963991  0.46850826    -0.61800
O126        O  0.40487202  0.03879068  0.41122178    -0.70200
O127        O  0.40572178  0.09207534  0.40220557    -0.69800
O128        O  0.47700937  0.09295090  0.47682459    -0.61000
O129        O  0.47880439  0.09293564  0.40364396    -0.73500
O130        O  0.40384229  0.09235786  0.47547836    -0.72300
Cu131      Cu  0.44183485  0.03826199  0.43993558     1.04600
Cu132      Cu  0.44130849  0.09538955  0.43950213     1.04300
C133        C  0.39737709  0.06386797  0.48783432     0.94000
C134        C  0.48627229  0.06441845  0.39224472     0.93100
C135        C  0.48928449  0.06458735  0.48361394     0.85300
C136        C  0.39389166  0.06344883  0.39580580     0.91600
O137        O  0.34399799  0.47361046  0.40951711    -0.72200
O138        O  0.34507499  0.40690169  0.47534628    -0.73200
O139        O  0.34431817  0.40787023  0.40937975    -0.61800
O140        O  0.34478548  0.47333305  0.47544368    -0.70200
O141        O  0.29107601  0.47718848  0.47946586    -0.69800
O142        O  0.29063106  0.40330332  0.40750596    -0.61000
O143        O  0.29146017  0.40387988  0.48062683    -0.73500
O144        O  0.29022239  0.47651472  0.40655574    -0.72300
Cu145      Cu  0.34554794  0.44042101  0.44248350     1.04600
Cu146      Cu  0.28814121  0.44017827  0.44363111     1.04300
C147        C  0.31874085  0.48610646  0.39663338     0.94000
C148        C  0.32022704  0.39393887  0.48895492     0.93100
C149        C  0.31919788  0.39464877  0.39704914     0.85300
C150        C  0.31984385  0.48681966  0.48811416     0.91600
O151        O  0.40468756  0.34348365  0.41370057    -0.72200
O152        O  0.47957386  0.34436501  0.47011724    -0.73200
O153        O  0.47077051  0.34460754  0.40424572    -0.61800
O154        O  0.41393166  0.34349222  0.47952186    -0.70200
O155        O  0.40513404  0.29021175  0.47760876    -0.69800
O156        O  0.47961688  0.29132533  0.40589108    -0.61000
O157        O  0.47802751  0.29106253  0.47913211    -0.73500
O158        O  0.40697944  0.29028556  0.40468839    -0.72300
Cu159      Cu  0.44220152  0.34504542  0.44187548     1.04600
Cu160      Cu  0.44248754  0.28793723  0.44183661     1.04300
C161        C  0.39443133  0.31855848  0.39826207     0.94000
C162        C  0.49011147  0.31955383  0.48563046     0.93100
C163        C  0.48641260  0.31983904  0.39382707     0.85300
C164        C  0.39854746  0.31850537  0.49001957     0.91600
C165        C  0.22257954  0.03486601  0.01360489     0.21100
C166        C  0.19418895  0.03561763  0.49410025    -0.38800
C167        C  0.16420017  0.03529296  0.01138859     0.20100
C168        C  0.16273291  0.03463276  0.04540083     0.22700
C169        C  0.19103567  0.03428370  0.06482636    -0.39300
C170        C  0.22091418  0.03437689  0.04761994     0.21500
N171        N  0.25403562  0.03404353  0.00334928    -0.32600
C172        C  0.27232615  0.03284680  0.03111379    -0.10100
C173        C  0.25258449  0.03347524  0.05913884    -0.28900
N174        N  0.13146310  0.03388949  0.05596507    -0.45500
C175        C  0.11273074  0.03358831  0.02859447    -0.04800
C176        C  0.13225092  0.03491602  0.00023963    -0.22200
H177        H  0.19535150  0.53586683  0.46749761     0.19600
H178        H  0.18986977  0.03359788  0.09141769     0.18400
H179        H  0.26041244  0.03288212  0.08452664     0.14700
H180        H  0.12419177  0.53580880  0.47494094     0.14600
H181        H  0.26250880  0.53484052  0.47906270     0.32700
H182        H  0.12340272  0.03310462  0.08034436     0.35500
C183        C  0.36891997  0.16096377  0.03307131     0.21100
C184        C  0.38825835  0.18945843  0.03244464    -0.38800
C185        C  0.37098442  0.21912934  0.03414948     0.20100
C186        C  0.33707353  0.22034226  0.03657625     0.22700
C187        C  0.31770753  0.19181895  0.03753669    -0.39300
C188        C  0.33499958  0.16212007  0.03560509     0.21500
N189        N  0.37944582  0.12977814  0.03144354    -0.32600
C190        C  0.35199201  0.11100676  0.03265676    -0.10100
C191        C  0.32382200  0.13020672  0.03563090    -0.28900
N192        N  0.32665776  0.25160843  0.03732705    -0.45500
C193        C  0.35411419  0.27033512  0.03492410    -0.04800
C194        C  0.38227414  0.25098014  0.03345402    -0.22200
H195        H  0.41476316  0.18859503  0.53040444     0.19600
H196        H  0.29118740  0.19269268  0.03937995     0.18400
H197        H  0.29859590  0.12188886  0.03737683     0.14700
H198        H  0.40760098  0.25903223  0.03246240     0.14600
H199        H  0.40380848  0.12183499  0.03064208     0.32700
H200        H  0.30235815  0.25973770  0.03876010     0.35500
C201        C  0.03380914  0.22191152  0.01301026     0.21100
C202        C  0.03307734  0.19352858  0.99356354    -0.38800
C203        C  0.03391443  0.16361589  0.01079028     0.20100
C204        C  0.03555221  0.16216730  0.04476066     0.22700
C205        C  0.03644388  0.19049855  0.06417581    -0.39300
C206        C  0.03546844  0.22032633  0.04694481     0.21500
N207        N  0.03310237  0.25332573  0.00271157    -0.32600
C208        C  0.03395126  0.27174849  0.03041481    -0.10100
C209        C  0.03585434  0.25201907  0.05836428    -0.28900
N210        N  0.03586757  0.13088567  0.05526460    -0.45500
C211        C  0.03397844  0.11226336  0.02784691    -0.04800
C212        C  0.03319527  0.13174603  0.99954333    -0.22200
H213        H  0.03165888  0.19467666  0.46708574     0.19600
H214        H  0.53768073  0.18939770  0.09073860     0.18400
H215        H  0.53705435  0.25964778  0.08367474     0.14700
H216        H  0.03267729  0.12375209  0.47419592     0.14600
H217        H  0.03301230  0.26160753  0.47837347     0.32700
H218        H  0.53677996  0.12267346  0.07961376     0.35500
C219        C  0.22356462  0.34592654  0.01462983     0.21100
C220        C  0.19535544  0.34792507  0.99501942    -0.38800
C221        C  0.16530718  0.34718980  0.01210262     0.20100
C222        C  0.16359160  0.34410497  0.04598074     0.22700
C223        C  0.19172615  0.34159309  0.06548295    -0.39300
C224        C  0.22170211  0.34286942  0.04850658     0.21500
N225        N  0.25502806  0.34780383  0.00466516    -0.36000
C226        C  0.27316922  0.34659447  0.03250649    -0.10100
C227        C  0.25329206  0.34287436  0.06023982    -0.28900
N228        N  0.13230626  0.34497463  0.05641415    -0.45500
C229        C  0.11387715  0.34913418  0.02911608    -0.04800
C230        C  0.13355049  0.35004037  0.00087799    -0.22200
H231        H  0.19671864  0.35077801  0.46856779     0.19600
H232        H  0.19038202  0.33963958  0.09200909     0.18400
H233        H  0.26093146  0.34134398  0.08565066     0.14700
H234        H  0.12577567  0.35188002  0.47555052     0.14600
H235        H  0.26351548  0.34922721  0.48042385     0.32700
H236        H  0.12400766  0.34345205  0.08073103     0.35500
C237        C  0.03413180  0.36893335  0.16032314     0.21100
C238        C  0.03261442  0.38815884  0.18892666    -0.38800
C239        C  0.03334715  0.37063932  0.21874662     0.20100
C240        C  0.03572387  0.33670549  0.21988677     0.22700
C241        C  0.03752851  0.31757016  0.19137679    -0.39300
C242        C  0.03655282  0.33502147  0.16166446     0.21500
N243        N  0.03335744  0.37939955  0.12892541    -0.32600
C244        C  0.03483386  0.35183487  0.11025879    -0.10100
C245        C  0.03738389  0.32382629  0.12987130    -0.28900
N246        N  0.03585859  0.32589632  0.25107889    -0.45500
C247        C  0.03307169  0.35301150  0.27009400    -0.04800
C248        C  0.03196962  0.38149273  0.25079816    -0.22200
H249        H  0.03066909  0.41469875  0.18803599     0.19600
H250        H  0.53933023  0.29101921  0.19226244     0.18400
H251        H  0.53921054  0.29858223  0.12210632     0.14700
H252        H  0.03101408  0.40675654  0.25901241     0.14600
H253        H  0.03279009  0.40378676  0.12082482     0.32700
H254        H  0.53747531  0.30151062  0.25886936     0.35500
C255        C  0.01441704  0.03180902  0.21859832     0.21100
C256        C  0.49535245  0.03236484  0.18989851    -0.38800
C257        C  0.01303887  0.03296015  0.16013435     0.20100
C258        C  0.04702314  0.03310546  0.15912910     0.22700
C259        C  0.06602728  0.03265276  0.18775051    -0.39300
C260        C  0.04840951  0.03205696  0.21743442     0.21500
N261        N  0.50368792  0.03162256  0.24994517    -0.32600
C262        C  0.03111163  0.03171696  0.26872932    -0.10100
C263        C  0.05941236  0.03222083  0.24935156    -0.28900
N264        N  0.05799714  0.03369463  0.12795257    -0.45500
C265        C  0.03091388  0.03342767  0.10882382    -0.04800
C266        C  0.50233458  0.03345577  0.12801627    -0.22200
H267        H  0.46877072  0.03232555  0.19068242     0.19600
H268        H  0.09260416  0.03290235  0.18696086     0.18400
H269        H  0.08464491  0.03272414  0.25758233     0.14700
H270        H  0.47715784  0.03405793  0.11964507     0.14600
H271        H  0.47929884  0.03248103  0.25799486     0.32700
H272        H  0.08245485  0.03372970  0.12019809     0.35500
C273        C  0.03127346  0.16210339  0.36468442     0.21100
C274        C  0.03237815  0.19052946  0.38402298    -0.38800
C275        C  0.03129872  0.22040514  0.36682619     0.20100
C276        C  0.02933129  0.22186139  0.33289894     0.22700
C277        C  0.02837878  0.19340845  0.31346494    -0.39300
C278        C  0.02951082  0.16348422  0.33071780     0.21500
N279        N  0.03230267  0.13080082  0.37521103    -0.32600
C280        C  0.03104779  0.11209995  0.34776292    -0.10100
C281        C  0.02966669  0.13153338  0.31949230    -0.28900
N282        N  0.02913894  0.25324405  0.32250778    -0.45500
C283        C  0.03068172  0.27185497  0.35001534    -0.04800
C284        C  0.03244580  0.25224640  0.37813960    -0.22200
H285        H  0.53414729  0.18942439  0.41047740     0.19600
H286        H  0.02712695  0.19449578  0.28690358     0.18400
H287        H  0.02873492  0.12332973  0.29421983     0.14700
H288        H  0.53503106  0.26016513  0.40337561     0.14600
H289        H  0.53463918  0.12271077  0.39949019     0.32700
H290        H  0.02782934  0.26145414  0.29824644     0.35500
C291        C  0.35171370  0.01428306  0.16176548     0.21100
C292        C  0.35203501  0.49505566  0.19047910    -0.38800
C293        C  0.35056438  0.01245493  0.22016594     0.20100
C294        C  0.34886693  0.04641624  0.22113804     0.22700
C295        C  0.34839550  0.06567146  0.19244858    -0.39300
C296        C  0.34986482  0.04825565  0.16278283     0.21500
N297        N  0.35265954  0.50364828  0.13052515    -0.32600
C298        C  0.35161223  0.03111031  0.11156397    -0.10100
C299        C  0.34954404  0.05935958  0.13077602    -0.28900
N300        N  0.34799180  0.05705386  0.25234036    -0.45500
C301        C  0.34956614  0.02976167  0.27145672    -0.04800
C302        C  0.35063302  0.50138216  0.25223152    -0.22200
H303        H  0.35353423  0.46856042  0.18974801     0.19600
H304        H  0.34698475  0.09224353  0.19317625     0.18400
H305        H  0.34808080  0.08461589  0.12239475     0.14700
H306        H  0.35096794  0.47605569  0.26049933     0.14600
H307        H  0.35283987  0.47921598  0.12268855     0.32700
H308        H  0.34699480  0.08144476  0.26011007     0.35500
C309        C  0.16109610  0.01545276  0.34771689     0.21100
C310        C  0.18946016  0.49596521  0.34827666    -0.38800
C311        C  0.21928565  0.01311642  0.34958731     0.20100
C312        C  0.22073922  0.04713458  0.34989256     0.22700
C313        C  0.19237573  0.06667690  0.34914655    -0.39300
C314        C  0.16252017  0.04947662  0.34810362     0.21500
N315        N  0.12981363  0.50501610  0.34702379    -0.32600
C316        C  0.11119835  0.03259896  0.34729230    -0.10100
C317        C  0.13066294  0.06082246  0.34751371    -0.28900
N318        N  0.25204174  0.05746704  0.35078928    -0.45500
C319        C  0.27058025  0.02984983  0.35152652    -0.04800
C320        C  0.25107892  0.50166259  0.35051326    -0.22200
H321        H  0.18835792  0.46943024  0.34791719     0.19600
H322        H  0.19347537  0.09327748  0.34944422     0.18400
H323        H  0.12252964  0.08615781  0.34780365     0.14700
H324        H  0.25906834  0.47629758  0.34967754     0.14600
H325        H  0.12169391  0.48066876  0.34589439     0.32700
H326        H  0.26035140  0.08179326  0.35096458     0.35500
C327        C  0.35039327  0.33380396  0.22280353     0.21100
C328        C  0.35135444  0.31470227  0.19416078    -0.38800
C329        C  0.35110188  0.33233344  0.16446374     0.20100
C330        C  0.34987601  0.36635284  0.16338267     0.22700
C331        C  0.34837604  0.38537796  0.19204752    -0.39300
C332        C  0.34891546  0.36779064  0.22174796     0.21500
N333        N  0.35126624  0.32303413  0.25403090    -0.32600
C334        C  0.35082301  0.35035559  0.27297095    -0.10100
C335        C  0.34883091  0.37875293  0.25374873    -0.28900
N336        N  0.35052739  0.37722704  0.13213786    -0.45500
C337        C  0.35222683  0.34988789  0.11326468    -0.04800
C338        C  0.35223567  0.32143458  0.13248032    -0.22200
H339        H  0.35259077  0.28811743  0.19494140     0.19600
H340        H  0.34734622  0.41189940  0.19128686     0.18400
H341        H  0.34722608  0.40397075  0.26203339     0.14700
H342        H  0.35315453  0.29620521  0.12410425     0.14600
H343        H  0.35270192  0.29867096  0.26192280     0.32700
H344        H  0.34908451  0.40163215  0.12416824     0.35500
C345        C  0.16200565  0.36672457  0.35030523     0.21100
C346        C  0.19062646  0.38583156  0.35179634    -0.38800
C347        C  0.22022325  0.36834575  0.35120721     0.20100
C348        C  0.22126187  0.33440371  0.34905515     0.22700
C349        C  0.19261084  0.31524092  0.34747887    -0.39300
C350        C  0.16296501  0.33276010  0.34830418     0.21500
N351        N  0.13088492  0.37752555  0.35051476    -0.32600
C352        C  0.11185158  0.35019772  0.34930505    -0.10100
C353        C  0.13094176  0.32182908  0.34741281    -0.28900
N354        N  0.25246688  0.32375110  0.34894782    -0.45500
C355        C  0.27137376  0.35107293  0.35152876    -0.04800
C356        C  0.25213614  0.37941168  0.35245256    -0.22200
H357        H  0.18989504  0.41231678  0.35357590     0.19600
H358        H  0.19334632  0.28868409  0.34586331     0.18400
H359        H  0.12247691  0.29662495  0.34597067     0.14700
H360        H  0.26030540  0.40473695  0.35313726     0.14600
H361        H  0.12323914  0.40202651  0.35028859     0.32700
H362        H  0.26043423  0.29937636  0.34764920     0.35500
C363        C  0.34791610  0.16037072  0.36958827     0.21100
C364        C  0.34978157  0.18879104  0.38906579    -0.38800
C365        C  0.34857295  0.21879491  0.37187481     0.20100
C366        C  0.34529350  0.22022450  0.33805324     0.22700
C367        C  0.34307522  0.19191118  0.31869710    -0.39300
C368        C  0.34467197  0.16203184  0.33577344     0.21500
N369        N  0.34959429  0.12888098  0.37963209    -0.32600
C370        C  0.34795201  0.11052907  0.35187511    -0.10100
C371        C  0.34429194  0.13035730  0.32417891    -0.28900
N372        N  0.34529325  0.25148574  0.32747854    -0.45500
C373        C  0.34911169  0.27028532  0.35459056    -0.04800
C374        C  0.35071561  0.25077712  0.38290063    -0.22200
H375        H  0.35260400  0.18762878  0.41549769     0.19600
H376        H  0.34080526  0.19306447  0.29221113     0.18400
H377        H  0.34225863  0.12274462  0.29886362     0.14700
H378        H  0.35261259  0.25879747  0.40815383     0.14600
H379        H  0.35103744  0.12051151  0.40388300     0.32700
H380        H  0.34330456  0.25945344  0.30320026     0.35500
C381        C  0.36373244  0.36289114  0.86518458     0.46200
H382        H  0.37944336  0.37849883  0.88028831    -0.02800
C383        C  0.32758627  0.32645245  0.82931443     0.46300
H384        H  0.31178924  0.31080230  0.81359434    -0.02800
C385        C  0.32714093  0.36958569  0.87116737    -0.16500
C386        C  0.37056047  0.36870310  0.82856693    -0.16300
C387        C  0.36931859  0.32633955  0.87243160    -0.16600
C388        C  0.30759659  0.35018900  0.85182753    -0.16600
C389        C  0.35104685  0.34937255  0.80920534    -0.16200
C390        C  0.34997297  0.30660083  0.85323490    -0.16500
C391        C  0.36288138  0.01818805  0.86406677     0.46200
H392        H  0.37888067  0.50309670  0.87945436    -0.02800
C393        C  0.32637743  0.05395104  0.82774825     0.46300
H394        H  0.31032706  0.06933489  0.81195724    -0.02800
C395        C  0.36900329  0.01158729  0.82747132    -0.16500
C396        C  0.32642440  0.01130922  0.87055789    -0.16300
C397        C  0.36856989  0.05494644  0.87035265    -0.16600
C398        C  0.34963367  0.03083874  0.80780206    -0.16600
C399        C  0.30671571  0.03045878  0.85107753    -0.16200
C400        C  0.34895254  0.07424268  0.85098728    -0.16500
C401        C  0.01905814  0.01972930  0.86151566     0.46200
H402        H  0.50393440  0.50415827  0.87754577    -0.02800
C403        C  0.05485002  0.05594134  0.82436152     0.46300
H404        H  0.07042480  0.07172758  0.80824286    -0.02800
C405        C  0.05574791  0.01314191  0.86691172    -0.16500
C406        C  0.01180940  0.01377811  0.82508944    -0.16300
C407        C  0.01287660  0.05633690  0.86775645    -0.16600
C408        C  0.07501270  0.03262959  0.84710384    -0.16600
C409        C  0.03120497  0.03287238  0.80499043    -0.16200
C410        C  0.03213250  0.07588838  0.84798656    -0.16500
C411        C  0.01979097  0.36440006  0.86278468     0.46200
H412        H  0.50435894  0.37974148  0.87858689    -0.02800
C413        C  0.05521438  0.32769908  0.82611850     0.46300
H414        H  0.07067899  0.31174812  0.81023618    -0.02800
C415        C  0.05649226  0.37024527  0.86870239    -0.16500
C416        C  0.01276893  0.32788613  0.86895950    -0.16300
C417        C  0.01375441  0.37122720  0.82627658    -0.16600
C418        C  0.07564173  0.35053052  0.84911869    -0.16600
C419        C  0.03181600  0.30809732  0.84949855    -0.16200
C420        C  0.03270549  0.35165444  0.80640662    -0.16500
C421        C  0.02166324  0.36420947  0.51765883     0.46200
H422        H  0.50588536  0.37955984  0.00231908    -0.02800
C423        C  0.05747568  0.32774486  0.55390363     0.46300
H424        H  0.07310426  0.31176988  0.56952721    -0.02800
C425        C  0.05828191  0.37022038  0.51095665    -0.16500
C426        C  0.01560572  0.37086827  0.55431946    -0.16300
C427        C  0.01525799  0.32763503  0.51133789    -0.16600
C428        C  0.07766918  0.35038112  0.53016515    -0.16600
C429        C  0.03488366  0.35141150  0.57390654    -0.16200
C430        C  0.03423731  0.30797883  0.53091924    -0.16500
C431        C  0.36524541  0.36275506  0.52077610     0.46200
H432        H  0.38038408  0.37837945  0.00485538    -0.02800
C433        C  0.32949061  0.32602100  0.55733876     0.46300
H434        H  0.31401350  0.30997202  0.57327847    -0.02800
C435        C  0.37112069  0.36963571  0.55730042    -0.16500
C436        C  0.32859126  0.36805790  0.51412746    -0.16300
C437        C  0.37268540  0.32626549  0.51530980    -0.16600
C438        C  0.35177491  0.35006931  0.57704757    -0.16600
C439        C  0.30932360  0.34807968  0.53347235    -0.16200
C440        C  0.35340823  0.30648140  0.53480856    -0.16500
C441        C  0.02032737  0.02005903  0.51624172     0.46200
H442        H  0.50478572  0.50440757  0.00099327    -0.02800
C443        C  0.05625435  0.05621712  0.55265144     0.46300
H444        H  0.07185982  0.07204125  0.56839876    -0.02800
C445        C  0.05703057  0.01374807  0.51022351    -0.16500
C446        C  0.01452821  0.05659539  0.50931085    -0.16300
C447        C  0.01324468  0.01410007  0.55282844    -0.16600
C448        C  0.07644578  0.03312212  0.52962538    -0.16600
C449        C  0.03374972  0.07611754  0.52880247    -0.16200
C450        C  0.03239965  0.03343482  0.57249988    -0.16500
C451        C  0.36469713  0.01891876  0.51902134     0.46200
H452        H  0.38022339  0.50369126  0.00320055    -0.02800
C453        C  0.32840284  0.05487552  0.55548869     0.46300
H454        H  0.31261790  0.07052371  0.57136009    -0.02800
C455        C  0.32807117  0.01308705  0.51250778    -0.16500
C456        C  0.37035985  0.01176039  0.55558181    -0.16300
C457        C  0.37166274  0.05556603  0.51336568    -0.16600
C458        C  0.30852362  0.03255166  0.53177957    -0.16600
C459        C  0.35103891  0.03114841  0.57529447    -0.16200
C460        C  0.35200978  0.07489206  0.53277896    -0.16500
O461        O  0.40682649  0.47147030  0.53828556    -0.72200
O462        O  0.47819159  0.41063986  0.53747353    -0.73200
O463        O  0.41191052  0.40556057  0.53947869    -0.61800
O464        O  0.47296258  0.47698024  0.53639577    -0.70200
O465        O  0.48043120  0.47728935  0.58987377    -0.69800
O466        O  0.40584299  0.40548826  0.59316888    -0.61000
O467        O  0.47902635  0.40411228  0.59108930    -0.73500
O468        O  0.40741886  0.47872836  0.59178801    -0.72300
Cu469      Cu  0.44246287  0.44110657  0.53687104     1.04600
Cu470      Cu  0.44325896  0.44143268  0.59418985     1.04300
C471        C  0.39577868  0.48613342  0.56336697     0.94000
C472        C  0.49000665  0.39636712  0.56241873     0.93100
C473        C  0.39746221  0.39448371  0.56482035     0.85300
C474        C  0.48768539  0.48853783  0.56111074     0.91600
O475        O  0.41206473  0.40455267  0.84480720    -0.72200
O476        O  0.47075096  0.47816168  0.84298128    -0.73200
O477        O  0.40488973  0.47056856  0.84432607    -0.61800
O478        O  0.47814684  0.41228221  0.84351907    -0.70200
O479        O  0.47642702  0.40371169  0.79023986    -0.69800
O480        O  0.40573939  0.47854739  0.79088230    -0.61000
O481        O  0.47857467  0.47662788  0.78948713    -0.73500
O482        O  0.40381879  0.40518818  0.79147237    -0.72300
Cu483      Cu  0.44148579  0.44138600  0.84496911     1.04600
Cu484      Cu  0.44107922  0.44101303  0.78777314     1.04300
C485        C  0.39673395  0.39364665  0.82014812     0.94000
C486        C  0.48580082  0.48866163  0.81773758     0.93100
C487        C  0.39408460  0.48568803  0.81943375     0.85300
C488        C  0.48862200  0.39701512  0.81855272     0.91600
O489        O  0.04035846  0.47539928  0.97192395    -0.72200
O490        O  0.03994245  0.40842579  0.90750777    -0.73200
O491        O  0.04102779  0.40937038  0.97331069    -0.61800
O492        O  0.03942705  0.47440645  0.90587056    -0.70200
O493        O  0.09305913  0.47910460  0.90229474    -0.69800
O494        O  0.09472991  0.40583298  0.97595553    -0.61000
O495        O  0.09357590  0.40538817  0.90298979    -0.73500
O496        O  0.09403644  0.47880115  0.97566475    -0.72300
Cu497      Cu  0.03923212  0.44191107  0.93971507     1.04600
Cu498      Cu  0.09659460  0.44234326  0.93913938     1.04300
C499        C  0.06532184  0.48830012  0.98488141     0.94000
C500        C  0.06487140  0.39564938  0.89415763     0.93100
C501        C  0.06619295  0.39621215  0.98571091     0.85300
C502        C  0.06424795  0.48783300  0.89270855     0.91600
O503        O  0.41290004  0.03913533  0.97719013    -0.72200
O504        O  0.47090331  0.03948267  0.90291181    -0.73200
O505        O  0.47874979  0.03963986  0.96850851    -0.61800
O506        O  0.40487220  0.03879064  0.91122168    -0.70200
O507        O  0.40572171  0.09207532  0.90220551    -0.69800
O508        O  0.47700943  0.09295094  0.97682447    -0.61000
O509        O  0.47880425  0.09293567  0.90364386    -0.73500
O510        O  0.40384230  0.09235791  0.97547836    -0.72300
Cu511      Cu  0.44183484  0.03826199  0.93993563     1.04600
Cu512      Cu  0.44130847  0.09538956  0.93950206     1.04300
C513        C  0.39737699  0.06386805  0.98783431     0.94000
C514        C  0.48627239  0.06441847  0.89224486     0.93100
C515        C  0.48928442  0.06458735  0.98361399     0.85300
C516        C  0.39389167  0.06344878  0.89580576     0.91600
O517        O  0.34399791  0.47361038  0.90951700    -0.72200
O518        O  0.34507496  0.40690168  0.97534634    -0.73200
O519        O  0.34431811  0.40787013  0.90937978    -0.61800
O520        O  0.34478540  0.47333311  0.97544355    -0.70200
O521        O  0.29107596  0.47718846  0.97946581    -0.69800
O522        O  0.29063103  0.40330327  0.90750585    -0.61000
O523        O  0.29146016  0.40387983  0.98062678    -0.73500
O524        O  0.29022237  0.47651477  0.90655569    -0.72300
Cu525      Cu  0.34554788  0.44042098  0.94248348     1.04600
Cu526      Cu  0.28814121  0.44017826  0.94363106     1.04300
C527        C  0.31874081  0.48610646  0.89663330     0.94000
C528        C  0.32022702  0.39393885  0.98895496     0.93100
C529        C  0.31919784  0.39464874  0.89704904     0.85300
C530        C  0.31984378  0.48681965  0.98811410     0.91600
O531        O  0.40468743  0.34348365  0.91370076    -0.72200
O532        O  0.47957377  0.34436507  0.97011731    -0.73200
O533        O  0.47077039  0.34460755  0.90424571    -0.61800
O534        O  0.41393158  0.34349237  0.97952202    -0.70200
O535        O  0.40513416  0.29021183  0.97760883    -0.69800
O536        O  0.47961699  0.29132541  0.90589121    -0.61000
O537        O  0.47802757  0.29106259  0.97913213    -0.73500
O538        O  0.40697960  0.29028560  0.90468842    -0.72300
Cu539      Cu  0.44220144  0.34504544  0.94187556     1.04600
Cu540      Cu  0.44248760  0.28793727  0.94183667     1.04300
C541        C  0.39443132  0.31855846  0.89826221     0.94000
C542        C  0.49011152  0.31955389  0.98563046     0.93100
C543        C  0.48641254  0.31983908  0.89382704     0.85300
C544        C  0.39854744  0.31850545  0.99001964     0.91600
C545        C  0.22257959  0.03486592  0.51360495     0.21100
C546        C  0.19418893  0.03561773  0.99410017    -0.38800
C547        C  0.16420019  0.03529275  0.51138890     0.20100
C548        C  0.16273294  0.03463260  0.54540079     0.22700
C549        C  0.19103552  0.03428342  0.56482625    -0.39300
C550        C  0.22091419  0.03437665  0.54761993     0.21500
N551        N  0.25403566  0.03404349  0.50334941    -0.32600
C552        C  0.27232615  0.03284668  0.53111398    -0.10100
C553        C  0.25258443  0.03347504  0.55913916    -0.28900
N554        N  0.13146294  0.03388925  0.55596582    -0.45500
C555        C  0.11273076  0.03358801  0.52859476    -0.04800
C556        C  0.13225095  0.03491593  0.50024023    -0.22200
H557        H  0.19535147  0.53586732  0.96749749     0.19600
H558        H  0.18986940  0.03359751  0.59141744     0.18400
H559        H  0.26041203  0.03288154  0.58452707     0.14700
H560        H  0.12419180  0.53580841  0.97494034     0.14600
H561        H  0.26250871  0.53484104  0.97906264     0.32700
H562        H  0.12340339  0.03310433  0.58034290     0.35500
C563        C  0.36892013  0.16096372  0.53307141     0.21100
C564        C  0.38825847  0.18945849  0.53244472    -0.38800
C565        C  0.37098449  0.21912938  0.53414962     0.20100
C566        C  0.33707376  0.22034228  0.53657627     0.22700
C567        C  0.31770792  0.19181893  0.53753682    -0.39300
C568        C  0.33499983  0.16212001  0.53560522     0.21500
N569        N  0.37944594  0.12977809  0.53144355    -0.32600
C570        C  0.35199209  0.11100673  0.53265683    -0.10100
C571        C  0.32382203  0.13020672  0.53563094    -0.28900
N572        N  0.32665777  0.25160846  0.53732708    -0.45500
C573        C  0.35411423  0.27033516  0.53492414    -0.04800
C574        C  0.38227413  0.25098017  0.53345397    -0.22200
H575        H  0.41476301  0.18859472  0.03040405     0.19600
H576        H  0.29118781  0.19269264  0.53938017     0.18400
H577        H  0.29859587  0.12188893  0.53737691     0.14700
H578        H  0.40760099  0.25903222  0.53246241     0.14600
H579        H  0.40380860  0.12183492  0.53064198     0.32700
H580        H  0.30235847  0.25973764  0.53876051     0.35500
C581        C  0.03380920  0.22191144  0.51300991     0.21100
C582        C  0.03307724  0.19352859  0.49356301    -0.38800
C583        C  0.03391450  0.16361596  0.51079018     0.20100
C584        C  0.03555247  0.16216734  0.54476057     0.22700
C585        C  0.03644422  0.19049852  0.56417568    -0.39300
C586        C  0.03546860  0.22032629  0.54694443     0.21500
N587        N  0.03310234  0.25332590  0.50271087    -0.32600
C588        C  0.03395138  0.27174851  0.53041451    -0.10100
C589        C  0.03585453  0.25201913  0.55836376    -0.28900
N590        N  0.03586796  0.13088565  0.55526466    -0.45500
C591        C  0.03397861  0.11226334  0.52784702    -0.04800
C592        C  0.03319529  0.13174606  0.49954359    -0.22200
H593        H  0.03165894  0.19467676  0.96708619     0.19600
H594        H  0.53768109  0.18939732  0.59073850     0.18400
H595        H  0.53705475  0.25964788  0.58367413     0.14700
H596        H  0.03267732  0.12375214  0.97419564     0.14600
H597        H  0.03301222  0.26160792  0.97837240     0.32700
H598        H  0.53678061  0.12267349  0.57961402     0.35500
C599        C  0.22356461  0.34592637  0.51462987     0.21100
C600        C  0.19535540  0.34792495  0.49501976    -0.38800
C601        C  0.16530713  0.34718975  0.51210319     0.20100
C602        C  0.16359165  0.34410485  0.54598093     0.22700
C603        C  0.19172620  0.34159292  0.56548304    -0.39300
C604        C  0.22170216  0.34286925  0.54850627     0.21500
N605        N  0.25502824  0.34780371  0.50466449    -0.36000
C606        C  0.27316930  0.34659422  0.53250614    -0.10100
C607        C  0.25329209  0.34287424  0.56023922    -0.28900
N608        N  0.13230606  0.34497450  0.55641496    -0.45500
C609        C  0.11387711  0.34913409  0.52911639    -0.04800
C610        C  0.13355048  0.35004038  0.50087861    -0.22200
H611        H  0.19671879  0.35077793  0.96856733     0.19600
H612        H  0.19038226  0.33963979  0.59200910     0.18400
H613        H  0.26093146  0.34134361  0.58565006     0.14700
H614        H  0.12577563  0.35187993  0.97554994     0.14600
H615        H  0.26351591  0.34922765  0.98042292     0.32700
H616        H  0.12400822  0.34345155  0.58072966     0.35500
C617        C  0.03413167  0.36893338  0.66032326     0.21100
C618        C  0.03261445  0.38815882  0.68892672    -0.38800
C619        C  0.03334725  0.37063926  0.71874661     0.20100
C620        C  0.03572378  0.33670545  0.71988676     0.22700
C621        C  0.03752835  0.31757007  0.69137688    -0.39300
C622        C  0.03655270  0.33502154  0.66166464     0.21500
N623        N  0.03335736  0.37939956  0.62892561    -0.32600
C624        C  0.03483388  0.35183508  0.61025889    -0.10100
C625        C  0.03738366  0.32382658  0.62987150    -0.28900
N626        N  0.03585860  0.32589627  0.75107888    -0.45500
C627        C  0.03307175  0.35301146  0.77009400    -0.04800
C628        C  0.03196979  0.38149264  0.75079811    -0.22200
H629        H  0.03066930  0.41469877  0.68803596     0.19600
H630        H  0.53932995  0.29101921  0.69226270     0.18400
H631        H  0.53921026  0.29858258  0.62210658     0.14700
H632        H  0.03101434  0.40675651  0.75901218     0.14600
H633        H  0.03279013  0.40378722  0.62082515     0.32700
H634        H  0.53747497  0.30150909  0.75886987     0.35500
C635        C  0.01441670  0.03180912  0.71859829     0.21100
C636        C  0.49535282  0.03236478  0.68989846    -0.38800
C637        C  0.01303857  0.03296013  0.66013435     0.20100
C638        C  0.04702294  0.03310553  0.65912918     0.22700
C639        C  0.06602708  0.03265277  0.68775061    -0.39300
C640        C  0.04840926  0.03205702  0.71743444     0.21500
N641        N  0.50368795  0.03162260  0.74994512    -0.32600
C642        C  0.03111143  0.03171718  0.76872930    -0.10100
C643        C  0.05941210  0.03222090  0.74935163    -0.28900
N644        N  0.05799708  0.03369463  0.62795262    -0.45500
C645        C  0.03091381  0.03342768  0.60882381    -0.04800
C646        C  0.50233456  0.03345573  0.62801618    -0.22200
H647        H  0.46877112  0.03232569  0.69068225     0.19600
H648        H  0.09260395  0.03290230  0.68696107     0.18400
H649        H  0.08464457  0.03272465  0.75758269     0.14700
H650        H  0.47715790  0.03405820  0.61964479     0.14600
H651        H  0.47929878  0.03248109  0.75799477     0.32700
H652        H  0.08245453  0.03372960  0.62019823     0.35500
C653        C  0.03127355  0.16210347  0.86468423     0.21100
C654        C  0.03237819  0.19052955  0.88402265    -0.38800
C655        C  0.03129870  0.22040530  0.86682603     0.20100
C656        C  0.02933142  0.22186145  0.83289889     0.22700
C657        C  0.02837884  0.19340867  0.81346462    -0.39300
C658        C  0.02951081  0.16348443  0.83071762     0.21500
N659        N  0.03230258  0.13080105  0.87521059    -0.32600
C660        C  0.03104774  0.11210004  0.84776298    -0.10100
C661        C  0.02966675  0.13153358  0.81949237    -0.28900
N662        N  0.02913891  0.25324430  0.82250726    -0.45500
C663        C  0.03068174  0.27185504  0.85001548    -0.04800
C664        C  0.03244589  0.25224653  0.87813969    -0.22200
H665        H  0.53414741  0.18942433  0.91047756     0.19600
H666        H  0.02712655  0.19449600  0.78690339     0.18400
H667        H  0.02873489  0.12332985  0.79421997     0.14700
H668        H  0.53503081  0.26016510  0.90337589     0.14600
H669        H  0.53463930  0.12271049  0.89949206     0.32700
H670        H  0.02782898  0.26145349  0.79824826     0.35500
C671        C  0.35171360  0.01428303  0.66176542     0.21100
C672        C  0.35203494  0.49505553  0.69047903    -0.38800
C673        C  0.35056431  0.01245487  0.72016583     0.20100
C674        C  0.34886667  0.04641632  0.72113788     0.22700
C675        C  0.34839533  0.06567158  0.69244829    -0.39300
C676        C  0.34986458  0.04825560  0.66278260     0.21500
N677        N  0.35265962  0.50364843  0.63052521    -0.32600
C678        C  0.35161201  0.03111019  0.61156390    -0.10100
C679        C  0.34954395  0.05935940  0.63077573    -0.28900
N680        N  0.34799167  0.05705365  0.75234015    -0.45500
C681        C  0.34956591  0.02976164  0.77145664    -0.04800
C682        C  0.35063287  0.50138202  0.75223151    -0.22200
H683        H  0.35353422  0.46856027  0.68974769     0.19600
H684        H  0.34698448  0.09224372  0.69317577     0.18400
H685        H  0.34808039  0.08461565  0.62239425     0.14700
H686        H  0.35096752  0.47605553  0.76049928     0.14600
H687        H  0.35284007  0.47921543  0.62268855     0.32700
H688        H  0.34699453  0.08144555  0.76010999     0.35500
C689        C  0.16109609  0.01545268  0.84771677     0.21100
C690        C  0.18946005  0.49596510  0.84827650    -0.38800
C691        C  0.21928565  0.01311650  0.84958728     0.20100
C692        C  0.22073922  0.04713460  0.84989249     0.22700
C693        C  0.19237569  0.06667689  0.84914659    -0.39300
C694        C  0.16252009  0.04947643  0.84810368     0.21500
N695        N  0.12981341  0.50501580  0.84702366    -0.32600
C696        C  0.11119833  0.03259883  0.84729223    -0.10100
C697        C  0.13066286  0.06082224  0.84751379    -0.28900
N698        N  0.25204186  0.05746721  0.85078936    -0.45500
C699        C  0.27058027  0.02984982  0.85152645    -0.04800
C700        C  0.25107882  0.50166257  0.85051323    -0.22200
H701        H  0.18835782  0.46943018  0.84791694     0.19600
H702        H  0.19347529  0.09327744  0.84944454     0.18400
H703        H  0.12252957  0.08615764  0.84780400     0.14700
H704        H  0.25906818  0.47629754  0.84967737     0.14600
H705        H  0.12169372  0.48066923  0.84589413     0.32700
H706        H  0.26035153  0.08179282  0.85096432     0.35500
C707        C  0.35039333  0.33380389  0.72280342     0.21100
C708        C  0.35135450  0.31470224  0.69416060    -0.38800
C709        C  0.35110187  0.33233354  0.66446364     0.20100
C710        C  0.34987607  0.36635291  0.66338262     0.22700
C711        C  0.34837612  0.38537795  0.69204754    -0.39300
C712        C  0.34891563  0.36779050  0.72174792     0.21500
N713        N  0.35126639  0.32303398  0.75403087    -0.32600
C714        C  0.35082326  0.35035553  0.77297096    -0.10100
C715        C  0.34883099  0.37875274  0.75374870    -0.28900
N716        N  0.35052747  0.37722720  0.63213772    -0.45500
C717        C  0.35222696  0.34988793  0.61326460    -0.04800
C718        C  0.35223565  0.32143466  0.63248026    -0.22200
H719        H  0.35259079  0.28811740  0.69494088     0.19600
H720        H  0.34734627  0.41189937  0.69128715     0.18400
H721        H  0.34722643  0.40397057  0.76203331     0.14700
H722        H  0.35315444  0.29620527  0.62410419     0.14600
H723        H  0.35270240  0.29867132  0.76192255     0.32700
H724        H  0.34908514  0.40163189  0.62416808     0.35500
C725        C  0.16200563  0.36672463  0.85030520     0.21100
C726        C  0.19062649  0.38583161  0.85179624    -0.38800
C727        C  0.22022332  0.36834583  0.85120717     0.20100
C728        C  0.22126193  0.33440389  0.84905507     0.22700
C729        C  0.19261085  0.31524127  0.84747893    -0.39300
C730        C  0.16296499  0.33276027  0.84830426     0.21500
N731        N  0.13088491  0.37752554  0.85051476    -0.32600
C732        C  0.11185158  0.35019770  0.84930513    -0.10100
C733        C  0.13094177  0.32182907  0.84741289    -0.28900
N734        N  0.25246689  0.32375109  0.84894782    -0.45500
C735        C  0.27137377  0.35107291  0.85152868    -0.04800
C736        C  0.25213620  0.37941168  0.85245245    -0.22200
H737        H  0.18989506  0.41231681  0.85357575     0.19600
H738        H  0.19334632  0.28868446  0.84586359     0.18400
H739        H  0.12247694  0.29662491  0.84597094     0.14700
H740        H  0.26030553  0.40473693  0.85313710     0.14600
H741        H  0.12323913  0.40202649  0.85028890     0.32700
H742        H  0.26043425  0.29937630  0.84764922     0.35500
C743        C  0.34791612  0.16037072  0.86958815     0.21100
C744        C  0.34978167  0.18879111  0.88906561    -0.38800
C745        C  0.34857301  0.21879491  0.87187464     0.20100
C746        C  0.34529359  0.22022448  0.83805311     0.22700
C747        C  0.34307521  0.19191116  0.81869698    -0.39300
C748        C  0.34467197  0.16203181  0.83577333     0.21500
N749        N  0.34959429  0.12888097  0.87963201    -0.32600
C750        C  0.34795201  0.11052904  0.85187503    -0.10100
C751        C  0.34429194  0.13035725  0.82417882    -0.28900
N752        N  0.34529325  0.25148573  0.82747846    -0.45500
C753        C  0.34911184  0.27028531  0.85459049    -0.04800
C754        C  0.35071575  0.25077709  0.88290053    -0.22200
H755        H  0.35260378  0.18762910  0.91549755     0.19600
H756        H  0.34080515  0.19306447  0.79221102     0.18400
H757        H  0.34225864  0.12274451  0.79886353     0.14700
H758        H  0.35261314  0.25879739  0.90815371     0.14600
H759        H  0.35103744  0.12051156  0.90388290     0.32700
H760        H  0.34330434  0.25945341  0.80320021     0.35500
C761        C  0.36373231  0.86289106  0.36518442     0.46200
H762        H  0.37944320  0.87849869  0.38028820    -0.02800
C763        C  0.32758617  0.82645237  0.32931431     0.46300
H764        H  0.31178909  0.81080217  0.31359433    -0.02800
C765        C  0.32714090  0.86958569  0.37116735    -0.16500
C766        C  0.37056038  0.86870313  0.32856682    -0.16300
C767        C  0.36931845  0.82633947  0.37243149    -0.16600
C768        C  0.30759657  0.85018897  0.35182751    -0.16600
C769        C  0.35104673  0.84937257  0.30920523    -0.16200
C770        C  0.34997281  0.80660073  0.35323484    -0.16500
C771        C  0.36288138  0.51818807  0.36406672     0.46200
H772        H  0.37888068  0.00309682  0.37945431    -0.02800
C773        C  0.32637745  0.55395114  0.32774822     0.46300
H774        H  0.31032724  0.56933516  0.31195719    -0.02800
C775        C  0.36900329  0.51158734  0.32747123    -0.16500
C776        C  0.32642443  0.51130924  0.37055792    -0.16300
C777        C  0.36856990  0.55494644  0.37035272    -0.16600
C778        C  0.34963372  0.53083889  0.30780202    -0.16600
C779        C  0.30671572  0.53045881  0.35107751    -0.16200
C780        C  0.34895250  0.57424268  0.35098739    -0.16500
C781        C  0.01905819  0.51972930  0.36151563     0.46200
H782        H  0.50393445  0.00415832  0.37754573    -0.02800
C783        C  0.05485005  0.55594138  0.32436153     0.46300
H784        H  0.07042481  0.57172768  0.30824294    -0.02800
C785        C  0.05574794  0.51314192  0.36691173    -0.16500
C786        C  0.01180948  0.51377807  0.32508942    -0.16300
C787        C  0.01287663  0.55633689  0.36775640    -0.16600
C788        C  0.07501272  0.53262952  0.34710380    -0.16600
C789        C  0.03120498  0.53287241  0.30499042    -0.16200
C790        C  0.03213257  0.57588837  0.34798664    -0.16500
C791        C  0.01979097  0.86440008  0.36278477     0.46200
H792        H  0.50435898  0.87974144  0.37858709    -0.02800
C793        C  0.05521421  0.82769923  0.32611862     0.46300
H794        H  0.07067886  0.81174837  0.31023631    -0.02800
C795        C  0.05649229  0.87024534  0.36870238    -0.16500
C796        C  0.01276890  0.82788612  0.36895953    -0.16300
C797        C  0.01375442  0.87122728  0.32627663    -0.16600
C798        C  0.07564172  0.85053070  0.34911866    -0.16600
C799        C  0.03181592  0.80809734  0.34949872    -0.16200
C800        C  0.03270531  0.85165442  0.30640665    -0.16500
C801        C  0.02166329  0.86420949  0.01765884     0.46200
H802        H  0.50588538  0.87955983  0.50231910    -0.02800
C803        C  0.05747574  0.82774483  0.05390375     0.46300
H804        H  0.07310404  0.81176975  0.06952750    -0.02800
C805        C  0.05828194  0.87022040  0.01095671    -0.16500
C806        C  0.01560571  0.87086828  0.05431943    -0.16300
C807        C  0.01525794  0.82763508  0.01133798    -0.16600
C808        C  0.07766926  0.85038108  0.03016505    -0.16600
C809        C  0.03488362  0.85141151  0.07390655    -0.16200
C810        C  0.03423734  0.80797886  0.03091941    -0.16500
C811        C  0.36524539  0.86275511  0.02077622     0.46200
H812        H  0.38038421  0.87837955  0.50485500    -0.02800
C813        C  0.32949068  0.82602109  0.05733873     0.46300
H814        H  0.31401359  0.80997203  0.07327835    -0.02800
C815        C  0.37112063  0.86963576  0.05730055    -0.16500
C816        C  0.32859123  0.86805795  0.01412748    -0.16300
C817        C  0.37268539  0.82626549  0.01530988    -0.16600
C818        C  0.35177483  0.85006940  0.07704765    -0.16600
C819        C  0.30932361  0.84807974  0.03347247    -0.16200
C820        C  0.35340814  0.80648144  0.03480857    -0.16500
C821        C  0.02032738  0.52005911  0.01624178     0.46200
H822        H  0.50478571  0.00440751  0.50099327    -0.02800
C823        C  0.05625424  0.55621713  0.05265138     0.46300
H824        H  0.07185944  0.57204149  0.06839870    -0.02800
C825        C  0.05703057  0.51374820  0.01022340    -0.16500
C826        C  0.01452812  0.55659544  0.00931086    -0.16300
C827        C  0.01324470  0.51410015  0.05282855    -0.16600
C828        C  0.07644578  0.53312214  0.02962521    -0.16600
C829        C  0.03374954  0.57611755  0.02880247    -0.16200
C830        C  0.03239962  0.53343488  0.07249992    -0.16500
C831        C  0.36469713  0.51891871  0.01902117     0.46200
H832        H  0.38022344  0.00369132  0.50320076    -0.02800
C833        C  0.32840285  0.55487547  0.05548860     0.46300
H834        H  0.31261789  0.57052366  0.07136002    -0.02800
C835        C  0.32807113  0.51308705  0.01250767    -0.16500
C836        C  0.37035987  0.51176033  0.05558167    -0.16300
C837        C  0.37166273  0.55556606  0.01336567    -0.16600
C838        C  0.30852360  0.53255167  0.03177944    -0.16600
C839        C  0.35103900  0.53114843  0.07529437    -0.16200
C840        C  0.35200972  0.57489207  0.03277892    -0.16500
O841        O  0.40682632  0.97147010  0.03828563    -0.72200
O842        O  0.47819172  0.91063993  0.03747347    -0.73200
O843        O  0.41191073  0.90556038  0.03947879    -0.61800
O844        O  0.47296254  0.97698039  0.03639581    -0.70200
O845        O  0.48043115  0.97728926  0.08987383    -0.69800
O846        O  0.40584302  0.90548825  0.09316894    -0.61000
O847        O  0.47902630  0.90411222  0.09108923    -0.73500
O848        O  0.40741889  0.97872824  0.09178802    -0.72300
Cu849      Cu  0.44246289  0.94110654  0.03687108     1.04600
Cu850      Cu  0.44325894  0.94143263  0.09418985     1.04300
C851        C  0.39577872  0.98613339  0.06336701     0.94000
C852        C  0.49000672  0.89636716  0.06241867     0.93100
C853        C  0.39746221  0.89448373  0.06482043     0.85300
C854        C  0.48768537  0.98853784  0.06111083     0.91600
O855        O  0.41206472  0.90455272  0.34480730    -0.72200
O856        O  0.47075114  0.97816151  0.34298130    -0.73200
O857        O  0.40488980  0.97056869  0.34432612    -0.61800
O858        O  0.47814678  0.91228202  0.34351912    -0.70200
O859        O  0.47642705  0.90371175  0.29023987    -0.69800
O860        O  0.40573944  0.97854742  0.29088241    -0.61000
O861        O  0.47857461  0.97662794  0.28948717    -0.73500
O862        O  0.40381878  0.90518820  0.29147237    -0.72300
Cu863      Cu  0.44148583  0.94138598  0.34496916     1.04600
Cu864      Cu  0.44107921  0.94101306  0.28777319     1.04300
C865        C  0.39673398  0.89364666  0.32014814     0.94000
C866        C  0.48580093  0.98866153  0.31773762     0.93100
C867        C  0.39408468  0.98568816  0.31943383     0.85300
C868        C  0.48862200  0.89701506  0.31855272     0.91600
O869        O  0.04035846  0.97539895  0.47192416    -0.72200
O870        O  0.03994248  0.90842601  0.40750754    -0.73200
O871        O  0.04102782  0.90937002  0.47331037    -0.61800
O872        O  0.03942708  0.97440658  0.40587078    -0.70200
O873        O  0.09305918  0.97910444  0.40229476    -0.69800
O874        O  0.09472994  0.90583294  0.47595563    -0.61000
O875        O  0.09357595  0.90538798  0.40298988    -0.73500
O876        O  0.09403644  0.97880107  0.47566470    -0.72300
Cu877      Cu  0.03923215  0.94191100  0.43971507     1.04600
Cu878      Cu  0.09659464  0.94234316  0.43913939     1.04300
C879        C  0.06532185  0.98829990  0.48488154     0.94000
C880        C  0.06487143  0.89564939  0.39415759     0.93100
C881        C  0.06619296  0.89621202  0.48571089     0.85300
C882        C  0.06424801  0.98783300  0.39270867     0.91600
O883        O  0.41290018  0.53913531  0.47719017    -0.72200
O884        O  0.47090320  0.53948269  0.40291162    -0.73200
O885        O  0.47874996  0.53963997  0.46850829    -0.61800
O886        O  0.40487213  0.53879055  0.41122173    -0.70200
O887        O  0.40572182  0.59207531  0.40220554    -0.69800
O888        O  0.47700937  0.59295103  0.47682459    -0.61000
O889        O  0.47880438  0.59293569  0.40364397    -0.73500
O890        O  0.40384230  0.59235797  0.47547836    -0.72300
Cu891      Cu  0.44183488  0.53826196  0.43993556     1.04600
Cu892      Cu  0.44130849  0.59538960  0.43950211     1.04300
C893        C  0.39737706  0.56386806  0.48783428     0.94000
C894        C  0.48627233  0.56441849  0.39224477     0.93100
C895        C  0.48928446  0.56458742  0.48361394     0.85300
C896        C  0.39389169  0.56344877  0.39580584     0.91600
O897        O  0.34399798  0.97361047  0.40951707    -0.72200
O898        O  0.34507489  0.90690179  0.47534632    -0.73200
O899        O  0.34431813  0.90787025  0.40937979    -0.61800
O900        O  0.34478544  0.97333310  0.47544363    -0.70200
O901        O  0.29107598  0.97718848  0.47946587    -0.69800
O902        O  0.29063104  0.90330334  0.40750587    -0.61000
O903        O  0.29146018  0.90387991  0.48062682    -0.73500
O904        O  0.29022239  0.97651479  0.40655576    -0.72300
Cu905      Cu  0.34554788  0.94042104  0.44248351     1.04600
Cu906      Cu  0.28814120  0.94017829  0.44363109     1.04300
C907        C  0.31874084  0.98610658  0.39663345     0.94000
C908        C  0.32022700  0.89393887  0.48895489     0.93100
C909        C  0.31919787  0.89464875  0.39704913     0.85300
C910        C  0.31984383  0.98681968  0.48811414     0.91600
O911        O  0.40468746  0.84348366  0.41370062    -0.72200
O912        O  0.47957380  0.84436491  0.47011729    -0.73200
O913        O  0.47077037  0.84460747  0.40424572    -0.61800
O914        O  0.41393153  0.84349219  0.47952192    -0.70200
O915        O  0.40513402  0.79021167  0.47760885    -0.69800
O916        O  0.47961694  0.79132533  0.40589127    -0.61000
O917        O  0.47802743  0.79106253  0.47913224    -0.73500
O918        O  0.40697946  0.79028557  0.40468847    -0.72300
Cu919      Cu  0.44220145  0.84504539  0.44187552     1.04600
Cu920      Cu  0.44248753  0.78793725  0.44183670     1.04300
C921        C  0.39443130  0.81855847  0.39826210     0.94000
C922        C  0.49011142  0.81955381  0.48563056     0.93100
C923        C  0.48641257  0.81983901  0.39382714     0.85300
C924        C  0.39854736  0.81850532  0.49001960     0.91600
C925        C  0.22257954  0.53486597  0.01360486     0.21100
C926        C  0.19418897  0.53561752  0.49410025    -0.38800
C927        C  0.16420020  0.53529293  0.01138859     0.20100
C928        C  0.16273295  0.53463281  0.04540081     0.22700
C929        C  0.19103565  0.53428372  0.06482640    -0.39300
C930        C  0.22091418  0.53437698  0.04761993     0.21500
N931        N  0.25403562  0.53404358  0.00334922    -0.32600
C932        C  0.27232615  0.53284683  0.03111373    -0.10100
C933        C  0.25258451  0.53347524  0.05913881    -0.28900
N934        N  0.13146308  0.53388960  0.05596517    -0.45500
C935        C  0.11273077  0.53358833  0.02859444    -0.04800
C936        C  0.13225096  0.53491602  0.00023965    -0.22200
H937        H  0.19535147  0.03586745  0.46749762     0.19600
H938        H  0.18986971  0.53359799  0.09141770     0.18400
H939        H  0.26041247  0.53288222  0.08452660     0.14700
H940        H  0.12419175  0.03580884  0.47494094     0.14600
H941        H  0.26250880  0.03484082  0.47906269     0.32700
H942        H  0.12340290  0.53310483  0.08034399     0.35500
C943        C  0.36891998  0.66096387  0.03307131     0.21100
C944        C  0.38825819  0.68945866  0.03244467    -0.38800
C945        C  0.37098411  0.71912950  0.03414952     0.20100
C946        C  0.33707340  0.72034227  0.03657623     0.22700
C947        C  0.31770742  0.69181896  0.03753668    -0.39300
C948        C  0.33499965  0.66212013  0.03560508     0.21500
N949        N  0.37944573  0.62977829  0.03144352    -0.32600
C950        C  0.35199211  0.61100678  0.03265669    -0.10100
C951        C  0.32382211  0.63020681  0.03563087    -0.28900
N952        N  0.32665707  0.75160864  0.03732707    -0.45500
C953        C  0.35411405  0.77033519  0.03492407    -0.04800
C954        C  0.38227383  0.75098027  0.03345406    -0.22200
H955        H  0.41476304  0.68859515  0.53040384     0.19600
H956        H  0.29118740  0.69269233  0.03938021     0.18400
H957        H  0.29859598  0.62188911  0.03737680     0.14700
H958        H  0.40760072  0.75903228  0.03246249     0.14600
H959        H  0.40380904  0.62183516  0.03064197     0.32700
H960        H  0.30235952  0.75973713  0.03876023     0.35500
C961        C  0.03380915  0.72191155  0.01301031     0.21100
C962        C  0.03307733  0.69352861  0.99356353    -0.38800
C963        C  0.03391447  0.66361591  0.01079025     0.20100
C964        C  0.03555206  0.66216734  0.04476065     0.22700
C965        C  0.03644378  0.69049855  0.06417585    -0.39300
C966        C  0.03546834  0.72032637  0.04694491     0.21500
N967        N  0.03310241  0.75332578  0.00271168    -0.32600
C968        C  0.03395110  0.77174856  0.03041489    -0.10100
C969        C  0.03585422  0.75201918  0.05836440    -0.28900
N970        N  0.03586753  0.63088571  0.05526455    -0.45500
C971        C  0.03397841  0.61226336  0.02784689    -0.04800
C972        C  0.03319523  0.63174603  0.99954331    -0.22200
H973        H  0.03165895  0.69467696  0.46708576     0.19600
H974        H  0.53768031  0.68939745  0.09073861     0.18400
H975        H  0.53705366  0.75964788  0.08367473     0.14700
H976        H  0.03267737  0.62375211  0.47419586     0.14600
H977        H  0.03301239  0.76160753  0.47837348     0.32700
H978        H  0.53678012  0.62267365  0.07961422     0.35500
C979        C  0.22356464  0.84592646  0.01462983     0.21100
C980        C  0.19535544  0.84792502  0.99501944    -0.38800
C981        C  0.16530717  0.84718980  0.01210264     0.20100
C982        C  0.16359159  0.84410495  0.04598075     0.22700
C983        C  0.19172615  0.84159303  0.06548293    -0.39300
C984        C  0.22170213  0.84286933  0.04850658     0.21500
N985        N  0.25502807  0.84780372  0.00466519    -0.36000
C986        C  0.27316927  0.84659430  0.03250648    -0.10100
C987        C  0.25329208  0.84287427  0.06023985    -0.28900
N988        N  0.13230625  0.84497461  0.05641421    -0.45500
C989        C  0.11387715  0.84913401  0.02911611    -0.04800
C990        C  0.13355048  0.85004039  0.00087804    -0.22200
H991        H  0.19671864  0.85077809  0.46856779     0.19600
H992        H  0.19038204  0.83963991  0.09200910     0.18400
H993        H  0.26093148  0.84134364  0.08565067     0.14700
H994        H  0.12577561  0.85187963  0.47555057     0.14600
H995        H  0.26351543  0.84922706  0.48042381     0.32700
H996        H  0.12400763  0.84345158  0.08073093     0.35500
C997        C  0.03413183  0.86893341  0.16032322     0.21100
C998        C  0.03261443  0.88815884  0.18892672    -0.38800
C999        C  0.03334718  0.87063911  0.21874655     0.20100
C1000       C  0.03572389  0.83670535  0.21988668     0.22700
C1001       C  0.03752854  0.81757005  0.19137674    -0.39300
C1002       C  0.03655284  0.83502158  0.16166451     0.21500
N1003       N  0.03335745  0.87939972  0.12892547    -0.32600
C1004       C  0.03483385  0.85183507  0.11025884    -0.10100
C1005       C  0.03738389  0.82382663  0.12987134    -0.28900
N1006       N  0.03585864  0.82589605  0.25107887    -0.45500
C1007       C  0.03307169  0.85301126  0.27009396    -0.04800
C1008       C  0.03196964  0.88149230  0.25079808    -0.22200
H1009       H  0.03066911  0.91469874  0.18803613     0.19600
H1010       H  0.53933061  0.79101922  0.19226243     0.18400
H1011       H  0.53921053  0.79858263  0.12210622     0.14700
H1012       H  0.03101410  0.90675611  0.25901233     0.14600
H1013       H  0.03279009  0.90378670  0.12082501     0.32700
H1014       H  0.53747549  0.80150924  0.25886991     0.35500
C1015       C  0.01441670  0.53180900  0.21859826     0.21100
C1016       C  0.49535249  0.53236478  0.18989843    -0.38800
C1017       C  0.01303866  0.53296012  0.16013435     0.20100
C1018       C  0.04702303  0.53310545  0.15912913     0.22700
C1019       C  0.06602713  0.53265262  0.18775054    -0.39300
C1020       C  0.04840923  0.53205693  0.21743434     0.21500
N1021       N  0.50368791  0.53162248  0.24994512    -0.32600
C1022       C  0.03111140  0.53171700  0.26872927    -0.10100
C1023       C  0.05941201  0.53222077  0.24935147    -0.28900
N1024       N  0.05799710  0.53369459  0.12795260    -0.45500
C1025       C  0.03091387  0.53342771  0.10882383    -0.04800
C1026       C  0.50233465  0.53345565  0.12801624    -0.22200
H1027       H  0.46877076  0.53232584  0.19068220     0.19600
H1028       H  0.09260402  0.53290211  0.18696096     0.18400
H1029       H  0.08464453  0.53272436  0.25758233     0.14700
H1030       H  0.47715793  0.53405767  0.11964501     0.14600
H1031       H  0.47929874  0.53248077  0.25799475     0.32700
H1032       H  0.08245477  0.53372967  0.12019814     0.35500
C1033       C  0.03127358  0.66210336  0.36468420     0.21100
C1034       C  0.03237812  0.69052942  0.38402264    -0.38800
C1035       C  0.03129866  0.72040517  0.36682602     0.20100
C1036       C  0.02933133  0.72186145  0.33289888     0.22700
C1037       C  0.02837888  0.69340851  0.31346486    -0.39300
C1038       C  0.02951084  0.66348424  0.33071770     0.21500
N1039       N  0.03230270  0.63080081  0.37521096    -0.32600
C1040       C  0.03104784  0.61209996  0.34776288    -0.10100
C1041       C  0.02966679  0.63153341  0.31949227    -0.28900
N1042       N  0.02913898  0.75324411  0.32250777    -0.45500
C1043       C  0.03068166  0.77185501  0.35001537    -0.04800
C1044       C  0.03244574  0.75224640  0.37813957    -0.22200
H1045       H  0.53414763  0.68942413  0.41047781     0.19600
H1046       H  0.02712698  0.69449585  0.28690352     0.18400
H1047       H  0.02873492  0.62332976  0.29421982     0.14700
H1048       H  0.53503111  0.76016513  0.40337565     0.14600
H1049       H  0.53463929  0.62271062  0.39949006     0.32700
H1050       H  0.02782918  0.76145414  0.29824659     0.35500
C1051       C  0.35171364  0.51428310  0.16176544     0.21100
C1052       C  0.35203509  0.99505565  0.19047916    -0.38800
C1053       C  0.35056437  0.51245510  0.22016582     0.20100
C1054       C  0.34886687  0.54641645  0.22113792     0.22700
C1055       C  0.34839547  0.56567170  0.19244843    -0.39300
C1056       C  0.34986476  0.54825569  0.16278270     0.21500
N1057       N  0.35265973  0.00364871  0.13052537    -0.32600
C1058       C  0.35161204  0.53111028  0.11156388    -0.10100
C1059       C  0.34954406  0.55935948  0.13077584    -0.28900
N1060       N  0.34799174  0.55705394  0.25234027    -0.45500
C1061       C  0.34956607  0.52976179  0.27145662    -0.04800
C1062       C  0.35063297  0.00138200  0.25223164    -0.22200
H1063       H  0.35353435  0.96856034  0.18974771     0.19600
H1064       H  0.34698482  0.59224379  0.19317608     0.18400
H1065       H  0.34808103  0.58461577  0.12239444     0.14700
H1066       H  0.35096778  0.97605552  0.26049939     0.14600
H1067       H  0.35284050  0.97921476  0.12268844     0.32700
H1068       H  0.34699420  0.58144501  0.26011006     0.35500
C1069       C  0.16109611  0.51545274  0.34771688     0.21100
C1070       C  0.18946021  0.99596529  0.34827666    -0.38800
C1071       C  0.21928564  0.51311662  0.34958732     0.20100
C1072       C  0.22073919  0.54713464  0.34989256     0.22700
C1073       C  0.19237568  0.56667690  0.34914655    -0.39300
C1074       C  0.16252001  0.54947646  0.34810361     0.21500
N1075       N  0.12981387  0.00501690  0.34702384    -0.32600
C1076       C  0.11119833  0.53259896  0.34729226    -0.10100
C1077       C  0.13066279  0.56082242  0.34751372    -0.28900
N1078       N  0.25204187  0.55746730  0.35078928    -0.45500
C1079       C  0.27058027  0.52984992  0.35152653    -0.04800
C1080       C  0.25107891  0.00166233  0.35051325    -0.22200
H1081       H  0.18835776  0.96943018  0.34791718     0.19600
H1082       H  0.19347536  0.59327743  0.34944422     0.18400
H1083       H  0.12252961  0.58615789  0.34780366     0.14700
H1084       H  0.25906821  0.97629728  0.34967756     0.14600
H1085       H  0.12169317  0.98066691  0.34589423     0.32700
H1086       H  0.26035145  0.58179270  0.35096455     0.35500
C1087       C  0.35039313  0.83380377  0.22280347     0.21100
C1088       C  0.35135439  0.81470195  0.19416076    -0.38800
C1089       C  0.35110183  0.83233343  0.16446382     0.20100
C1090       C  0.34987601  0.86635285  0.16338275     0.22700
C1091       C  0.34837601  0.88537789  0.19204759    -0.39300
C1092       C  0.34891550  0.86779049  0.22174796     0.21500
N1093       N  0.35126620  0.82303397  0.25403091    -0.32600
C1094       C  0.35082305  0.85035554  0.27297093    -0.10100
C1095       C  0.34883091  0.87875277  0.25374874    -0.28900
N1096       N  0.35052744  0.87722715  0.13213792    -0.45500
C1097       C  0.35222684  0.84988811  0.11326469    -0.04800
C1098       C  0.35223563  0.82143493  0.13248037    -0.22200
H1099       H  0.35259025  0.78811710  0.19494130     0.19600
H1100       H  0.34734630  0.91189935  0.19128695     0.18400
H1101       H  0.34722620  0.90397057  0.26203346     0.14700
H1102       H  0.35315472  0.79620563  0.12410419     0.14600
H1103       H  0.35270220  0.79867134  0.26192261     0.32700
H1104       H  0.34908455  0.90163225  0.12416831     0.35500
C1105       C  0.16200570  0.86672492  0.35030516     0.21100
C1106       C  0.19062644  0.88583205  0.35179640    -0.38800
C1107       C  0.22022322  0.86834607  0.35120723     0.20100
C1108       C  0.22126185  0.83440400  0.34905506     0.22700
C1109       C  0.19261083  0.81524136  0.34747875    -0.39300
C1110       C  0.16296507  0.83276049  0.34830414     0.21500
N1111       N  0.13088493  0.87752576  0.35051478    -0.32600
C1112       C  0.11185164  0.85019791  0.34930496    -0.10100
C1113       C  0.13094183  0.82182938  0.34741266    -0.28900
N1114       N  0.25246683  0.82375118  0.34894773    -0.45500
C1115       C  0.27137375  0.85107296  0.35152864    -0.04800
C1116       C  0.25213615  0.87941174  0.35245258    -0.22200
H1117       H  0.18989496  0.91231725  0.35357606     0.19600
H1118       H  0.19334627  0.78868453  0.34586313     0.18400
H1119       H  0.12247678  0.79662531  0.34597038     0.14700
H1120       H  0.26030544  0.90473699  0.35313737     0.14600
H1121       H  0.12323919  0.90202647  0.35028881     0.32700
H1122       H  0.26043417  0.79937643  0.34764888     0.35500
C1123       C  0.34791623  0.66037065  0.36958803     0.21100
C1124       C  0.34978164  0.68879100  0.38906545    -0.38800
C1125       C  0.34857295  0.71879478  0.37187448     0.20100
C1126       C  0.34529370  0.72022441  0.33805299     0.22700
C1127       C  0.34307538  0.69191108  0.31869689    -0.39300
C1128       C  0.34467206  0.66203173  0.33577323     0.21500
N1129       N  0.34959432  0.62888091  0.37963203    -0.32600
C1130       C  0.34795204  0.61052899  0.35187503    -0.10100
C1131       C  0.34429207  0.63035715  0.32417875    -0.28900
N1132       N  0.34529331  0.75148559  0.32747846    -0.45500
C1133       C  0.34911174  0.77028521  0.35459030    -0.04800
C1134       C  0.35071568  0.75077694  0.38290026    -0.22200
H1135       H  0.35260392  0.68762885  0.41549737     0.19600
H1136       H  0.34080548  0.69306439  0.29221089     0.18400
H1137       H  0.34225871  0.62274432  0.29886352     0.14700
H1138       H  0.35261260  0.75879729  0.40815348     0.14600
H1139       H  0.35103741  0.62051148  0.40388276     0.32700
H1140       H  0.34330423  0.75945336  0.30319967     0.35500
C1141       C  0.36373245  0.86289109  0.86518444     0.46200
H1142       H  0.37944336  0.87849876  0.88028820    -0.02800
C1143       C  0.32758619  0.82645235  0.82931434     0.46300
H1144       H  0.31178905  0.81080214  0.81359440    -0.02800
C1145       C  0.32714097  0.86958566  0.87116731    -0.16500
C1146       C  0.37056046  0.86870307  0.82856680    -0.16300
C1147       C  0.36931853  0.82633950  0.87243153    -0.16600
C1148       C  0.30759660  0.85018898  0.85182744    -0.16600
C1149       C  0.35104676  0.84937250  0.80920521    -0.16200
C1150       C  0.34997287  0.80660076  0.85323489    -0.16500
C1151       C  0.36288135  0.51818801  0.86406674     0.46200
H1152       H  0.37888076  0.00309677  0.87945437    -0.02800
C1153       C  0.32637741  0.55395106  0.82774828     0.46300
H1154       H  0.31032702  0.56933496  0.81195733    -0.02800
C1155       C  0.36900326  0.51158727  0.82747128    -0.16500
C1156       C  0.32642438  0.51130920  0.87055783    -0.16300
C1157       C  0.36856988  0.55494636  0.87035271    -0.16600
C1158       C  0.34963364  0.53083874  0.80780206    -0.16600
C1159       C  0.30671568  0.53045881  0.85107751    -0.16200
C1160       C  0.34895251  0.57424262  0.85098747    -0.16500
C1161       C  0.01905809  0.51972931  0.86151563     0.46200
H1162       H  0.50393436  0.00415830  0.87754577    -0.02800
C1163       C  0.05484999  0.55594135  0.82436145     0.46300
H1164       H  0.07042473  0.57172751  0.80824272    -0.02800
C1165       C  0.05574784  0.51314197  0.86691172    -0.16500
C1166       C  0.01180944  0.51377807  0.82508942    -0.16300
C1167       C  0.01287655  0.55633690  0.86775637    -0.16600
C1168       C  0.07501263  0.53262957  0.84710385    -0.16600
C1169       C  0.03120479  0.53287239  0.80499040    -0.16200
C1170       C  0.03213255  0.57588837  0.84798666    -0.16500
C1171       C  0.01979093  0.86440014  0.86278475     0.46200
H1172       H  0.50435887  0.87974153  0.87858697    -0.02800
C1173       C  0.05521427  0.82769929  0.82611869     0.46300
H1174       H  0.07067896  0.81174843  0.81023638    -0.02800
C1175       C  0.05649229  0.87024531  0.86870251    -0.16500
C1176       C  0.01276887  0.82788616  0.86895955    -0.16300
C1177       C  0.01375443  0.87122727  0.82627659    -0.16600
C1178       C  0.07564174  0.85053071  0.84911880    -0.16600
C1179       C  0.03181592  0.80809738  0.84949864    -0.16200
C1180       C  0.03270544  0.85165451  0.80640668    -0.16500
C1181       C  0.02166325  0.86420947  0.51765881     0.46200
H1182       H  0.50588531  0.87955991  0.00231896    -0.02800
C1183       C  0.05747564  0.82774483  0.55390366     0.46300
H1184       H  0.07310403  0.81176967  0.56952723    -0.02800
C1185       C  0.05828192  0.87022033  0.51095662    -0.16500
C1186       C  0.01560571  0.87086828  0.55431944    -0.16300
C1187       C  0.01525794  0.82763505  0.51133788    -0.16600
C1188       C  0.07766921  0.85038105  0.53016512    -0.16600
C1189       C  0.03488362  0.85141151  0.57390656    -0.16200
C1190       C  0.03423722  0.80797884  0.53091927    -0.16500
C1191       C  0.36524539  0.86275513  0.52077598     0.46200
H1192       H  0.38038421  0.87837954  0.00485528    -0.02800
C1193       C  0.32949062  0.82602104  0.55733876     0.46300
H1194       H  0.31401366  0.80997200  0.57327852    -0.02800
C1195       C  0.37112067  0.86963571  0.55730034    -0.16500
C1196       C  0.32859124  0.86805791  0.51412737    -0.16300
C1197       C  0.37268533  0.82626551  0.51530976    -0.16600
C1198       C  0.35177489  0.85006944  0.57704753    -0.16600
C1199       C  0.30932358  0.84807975  0.53347237    -0.16200
C1200       C  0.35340821  0.80648143  0.53480857    -0.16500
C1201       C  0.02032745  0.52005912  0.51624176     0.46200
H1202       H  0.50478571  0.00440751  0.00099329    -0.02800
C1203       C  0.05625438  0.55621710  0.55265145     0.46300
H1204       H  0.07185980  0.57204128  0.56839874    -0.02800
C1205       C  0.05703061  0.51374807  0.51022353    -0.16500
C1206       C  0.01452825  0.55659544  0.50931083    -0.16300
C1207       C  0.01324471  0.51410014  0.55282846    -0.16600
C1208       C  0.07644581  0.53312212  0.52962536    -0.16600
C1209       C  0.03374968  0.57611754  0.52880253    -0.16200
C1210       C  0.03239970  0.53343480  0.57249988    -0.16500
C1211       C  0.36469710  0.51891882  0.51902134     0.46200
H1212       H  0.38022349  0.00369129  0.00320069    -0.02800
C1213       C  0.32840285  0.55487556  0.55548867     0.46300
H1214       H  0.31261792  0.57052376  0.57136007    -0.02800
C1215       C  0.32807115  0.51308702  0.51250781    -0.16500
C1216       C  0.37035983  0.51176045  0.55558181    -0.16300
C1217       C  0.37166270  0.55556611  0.51336564    -0.16600
C1218       C  0.30852361  0.53255165  0.53177957    -0.16600
C1219       C  0.35103891  0.53114852  0.57529447    -0.16200
C1220       C  0.35200980  0.57489212  0.53277897    -0.16500
O1221       O  0.40682630  0.97147006  0.53828556    -0.72200
O1222       O  0.47819175  0.91063992  0.53747354    -0.73200
O1223       O  0.41191073  0.90556034  0.53947873    -0.61800
O1224       O  0.47296249  0.97698038  0.53639576    -0.70200
O1225       O  0.48043116  0.97728927  0.58987375    -0.69800
O1226       O  0.40584304  0.90548822  0.59316887    -0.61000
O1227       O  0.47902635  0.90411217  0.59108929    -0.73500
O1228       O  0.40741887  0.97872821  0.59178799    -0.72300
Cu1229     Cu  0.44246288  0.94110652  0.53687106     1.04600
Cu1230     Cu  0.44325896  0.94143260  0.59418984     1.04300
C1231       C  0.39577871  0.98613335  0.56336697     0.94000
C1232       C  0.49000682  0.89636719  0.56241873     0.93100
C1233       C  0.39746225  0.89448365  0.56482035     0.85300
C1234       C  0.48768535  0.98853784  0.56111075     0.91600
O1235       O  0.41206488  0.90455255  0.84480717    -0.72200
O1236       O  0.47075097  0.97816160  0.84298127    -0.73200
O1237       O  0.40488968  0.97056846  0.84432607    -0.61800
O1238       O  0.47814685  0.91228219  0.84351902    -0.70200
O1239       O  0.47642704  0.90371172  0.79023980    -0.69800
O1240       O  0.40573941  0.97854744  0.79088233    -0.61000
O1241       O  0.47857466  0.97662792  0.78948712    -0.73500
O1242       O  0.40381877  0.90518817  0.79147228    -0.72300
Cu1243     Cu  0.44148583  0.94138594  0.84496908     1.04600
Cu1244     Cu  0.44107922  0.94101305  0.78777309     1.04300
C1245       C  0.39673400  0.89364662  0.82014805     0.94000
C1246       C  0.48580080  0.98866162  0.81773759     0.93100
C1247       C  0.39408459  0.98568801  0.81943378     0.85300
C1248       C  0.48862200  0.89701512  0.81855266     0.91600
O1249       O  0.04035851  0.97539925  0.97192399    -0.72200
O1250       O  0.03994254  0.90842572  0.90750785    -0.73200
O1251       O  0.04102782  0.90937027  0.97331072    -0.61800
O1252       O  0.03942706  0.97440632  0.90587056    -0.70200
O1253       O  0.09305914  0.97910461  0.90229490    -0.69800
O1254       O  0.09472993  0.90583305  0.97595570    -0.61000
O1255       O  0.09357600  0.90538812  0.90298987    -0.73500
O1256       O  0.09403645  0.97880117  0.97566489    -0.72300
Cu1257     Cu  0.03923216  0.94191101  0.93971512     1.04600
Cu1258     Cu  0.09659460  0.94234327  0.93913950     1.04300
C1259       C  0.06532184  0.98830015  0.98488148     0.94000
C1260       C  0.06487149  0.89564935  0.89415771     0.93100
C1261       C  0.06619297  0.89621215  0.98571104     0.85300
C1262       C  0.06424798  0.98783293  0.89270860     0.91600
O1263       O  0.41290007  0.53913527  0.97719018    -0.72200
O1264       O  0.47090325  0.53948262  0.90291177    -0.73200
O1265       O  0.47874984  0.53963989  0.96850842    -0.61800
O1266       O  0.40487217  0.53879052  0.91122176    -0.70200
O1267       O  0.40572174  0.59207527  0.90220554    -0.69800
O1268       O  0.47700938  0.59295100  0.97682446    -0.61000
O1269       O  0.47880431  0.59293565  0.90364384    -0.73500
O1270       O  0.40384234  0.59235791  0.97547832    -0.72300
Cu1271     Cu  0.44183484  0.53826190  0.93993563     1.04600
Cu1272     Cu  0.44130847  0.59538957  0.93950205     1.04300
C1273       C  0.39737704  0.56386805  0.98783431     0.94000
C1274       C  0.48627236  0.56441842  0.89224480     0.93100
C1275       C  0.48928440  0.56458741  0.98361396     0.85300
C1276       C  0.39389175  0.56344869  0.89580577     0.91600
O1277       O  0.34399792  0.97361054  0.90951704    -0.72200
O1278       O  0.34507496  0.90690169  0.97534625    -0.73200
O1279       O  0.34431813  0.90787025  0.90937968    -0.61800
O1280       O  0.34478543  0.97333306  0.97544361    -0.70200
O1281       O  0.29107597  0.97718843  0.97946580    -0.69800
O1282       O  0.29063107  0.90330330  0.90750583    -0.61000
O1283       O  0.29146016  0.90387988  0.98062673    -0.73500
O1284       O  0.29022236  0.97651476  0.90655572    -0.72300
Cu1285     Cu  0.34554789  0.94042104  0.94248346     1.04600
Cu1286     Cu  0.28814122  0.94017825  0.94363105     1.04300
C1287       C  0.31874079  0.98610657  0.89663338     0.94000
C1288       C  0.32022702  0.89393890  0.98895491     0.93100
C1289       C  0.31919788  0.89464882  0.89704896     0.85300
C1290       C  0.31984381  0.98681967  0.98811408     0.91600
O1291       O  0.40468743  0.84348362  0.91370069    -0.72200
O1292       O  0.47957377  0.84436502  0.97011731    -0.73200
O1293       O  0.47077038  0.84460750  0.90424578    -0.61800
O1294       O  0.41393155  0.84349224  0.97952199    -0.70200
O1295       O  0.40513407  0.79021177  0.97760883    -0.69800
O1296       O  0.47961690  0.79132534  0.90589119    -0.61000
O1297       O  0.47802747  0.79106254  0.97913212    -0.73500
O1298       O  0.40697946  0.79028554  0.90468843    -0.72300
Cu1299     Cu  0.44220143  0.84504541  0.94187556     1.04600
Cu1300     Cu  0.44248753  0.78793726  0.94183666     1.04300
C1301       C  0.39443125  0.81855843  0.89826218     0.94000
C1302       C  0.49011143  0.81955384  0.98563050     0.93100
C1303       C  0.48641249  0.81983903  0.89382707     0.85300
C1304       C  0.39854741  0.81850538  0.99001965     0.91600
C1305       C  0.22257961  0.53486581  0.51360497     0.21100
C1306       C  0.19418896  0.53561773  0.99410012    -0.38800
C1307       C  0.16420022  0.53529276  0.51138890     0.20100
C1308       C  0.16273299  0.53463256  0.54540080     0.22700
C1309       C  0.19103563  0.53428349  0.56482626    -0.39300
C1310       C  0.22091428  0.53437670  0.54761997     0.21500
N1311       N  0.25403567  0.53404343  0.50334944    -0.32600
C1312       C  0.27232618  0.53284666  0.53111401    -0.10100
C1313       C  0.25258456  0.53347515  0.55913924    -0.28900
N1314       N  0.13146296  0.53388933  0.55596582    -0.45500
C1315       C  0.11273078  0.53358806  0.52859475    -0.04800
C1316       C  0.13225098  0.53491587  0.50024022    -0.22200
H1317       H  0.19535139  0.03586698  0.96749755     0.19600
H1318       H  0.18986974  0.53359771  0.59141745     0.18400
H1319       H  0.26041240  0.53288175  0.58452709     0.14700
H1320       H  0.12419170  0.03580894  0.97494037     0.14600
H1321       H  0.26250871  0.03484060  0.97906264     0.32700
H1322       H  0.12340340  0.53310453  0.58034291     0.35500
C1323       C  0.36892014  0.66096385  0.53307135     0.21100
C1324       C  0.38825837  0.68945861  0.53244466    -0.38800
C1325       C  0.37098440  0.71912943  0.53414956     0.20100
C1326       C  0.33707353  0.72034228  0.53657627     0.22700
C1327       C  0.31770762  0.69181889  0.53753683    -0.39300
C1328       C  0.33499983  0.66212016  0.53560521     0.21500
N1329       N  0.37944591  0.62977828  0.53144350    -0.32600
C1330       C  0.35199233  0.61100681  0.53265682    -0.10100
C1331       C  0.32382242  0.63020688  0.53563093    -0.28900
N1332       N  0.32665772  0.75160844  0.53732709    -0.45500
C1333       C  0.35411419  0.77033517  0.53492418    -0.04800
C1334       C  0.38227412  0.75098021  0.53345394    -0.22200
H1335       H  0.41476289  0.68859517  0.03040407     0.19600
H1336       H  0.29118749  0.69269234  0.53938016     0.18400
H1337       H  0.29859627  0.62188918  0.53737691     0.14700
H1338       H  0.40760099  0.75903223  0.53246236     0.14600
H1339       H  0.40380917  0.62183515  0.53064185     0.32700
H1340       H  0.30235820  0.75973757  0.53876056     0.35500
C1341       C  0.03380925  0.72191145  0.51300994     0.21100
C1342       C  0.03307731  0.69352866  0.49356303    -0.38800
C1343       C  0.03391453  0.66361597  0.51079020     0.20100
C1344       C  0.03555241  0.66216734  0.54476060     0.22700
C1345       C  0.03644416  0.69049850  0.56417576    -0.39300
C1346       C  0.03546857  0.72032628  0.54694446     0.21500
N1347       N  0.03310236  0.75332591  0.50271088    -0.32600
C1348       C  0.03395121  0.77174851  0.53041452    -0.10100
C1349       C  0.03585445  0.75201912  0.55836375    -0.28900
N1350       N  0.03586788  0.63088556  0.55526471    -0.45500
C1351       C  0.03397853  0.61226332  0.52784698    -0.04800
C1352       C  0.03319531  0.63174604  0.49954356    -0.22200
H1353       H  0.03165901  0.69467678  0.96708617     0.19600
H1354       H  0.53768109  0.68939741  0.59073852     0.18400
H1355       H  0.53705474  0.75964791  0.58367412     0.14700
H1356       H  0.03267734  0.62375213  0.97419562     0.14600
H1357       H  0.03301262  0.76160807  0.97837248     0.32700
H1358       H  0.53678092  0.62267361  0.57961408     0.35500
C1359       C  0.22356458  0.84592645  0.51462987     0.21100
C1360       C  0.19535540  0.84792496  0.49501975    -0.38800
C1361       C  0.16530714  0.84718966  0.51210319     0.20100
C1362       C  0.16359163  0.84410492  0.54598094     0.22700
C1363       C  0.19172617  0.84159294  0.56548304    -0.39300
C1364       C  0.22170212  0.84286932  0.54850628     0.21500
N1365       N  0.25502820  0.84780373  0.50466448    -0.36000
C1366       C  0.27316927  0.84659425  0.53250613    -0.10100
C1367       C  0.25329206  0.84287431  0.56023922    -0.28900
N1368       N  0.13230605  0.84497449  0.55641495    -0.45500
C1369       C  0.11387713  0.84913400  0.52911640    -0.04800
C1370       C  0.13355051  0.85004035  0.50087865    -0.22200
H1371       H  0.19671883  0.85077798  0.96856736     0.19600
H1372       H  0.19038219  0.83963989  0.59200910     0.18400
H1373       H  0.26093146  0.84134363  0.58565004     0.14700
H1374       H  0.12577553  0.85187956  0.97554999     0.14600
H1375       H  0.26351597  0.84922727  0.98042281     0.32700
H1376       H  0.12400812  0.84345197  0.58072979     0.35500
C1377       C  0.03413171  0.86893344  0.66032328     0.21100
C1378       C  0.03261448  0.88815888  0.68892675    -0.38800
C1379       C  0.03334728  0.87063926  0.71874661     0.20100
C1380       C  0.03572380  0.83670550  0.71988673     0.22700
C1381       C  0.03752837  0.81757008  0.69137686    -0.39300
C1382       C  0.03655273  0.83502159  0.66166464     0.21500
N1383       N  0.03335739  0.87939962  0.62892561    -0.32600
C1384       C  0.03483388  0.85183513  0.61025890    -0.10100
C1385       C  0.03738369  0.82382664  0.62987151    -0.28900
N1386       N  0.03585863  0.82589627  0.75107889    -0.45500
C1387       C  0.03307179  0.85301150  0.77009403    -0.04800
C1388       C  0.03196983  0.88149259  0.75079814    -0.22200
H1389       H  0.03066905  0.91469880  0.68803603     0.19600
H1390       H  0.53933020  0.79101916  0.69226260     0.18400
H1391       H  0.53921019  0.79858258  0.62210652     0.14700
H1392       H  0.03101440  0.90675644  0.75901224     0.14600
H1393       H  0.03279016  0.90378728  0.62082515     0.32700
H1394       H  0.53747515  0.80150930  0.75886970     0.35500
C1395       C  0.01441690  0.53180919  0.71859827     0.21100
C1396       C  0.49535282  0.53236476  0.68989845    -0.38800
C1397       C  0.01303886  0.53296010  0.66013435     0.20100
C1398       C  0.04702320  0.53310534  0.65912919     0.22700
C1399       C  0.06602742  0.53265262  0.68775065    -0.39300
C1400       C  0.04840929  0.53205693  0.71743449     0.21500
N1401       N  0.50368798  0.53162255  0.74994512    -0.32600
C1402       C  0.03111131  0.53171716  0.76872931    -0.10100
C1403       C  0.05941185  0.53222082  0.74935171    -0.28900
N1404       N  0.05799716  0.53369443  0.62795257    -0.45500
C1405       C  0.03091384  0.53342766  0.60882379    -0.04800
C1406       C  0.50233461  0.53345564  0.62801622    -0.22200
H1407       H  0.46877110  0.53232585  0.69068218     0.19600
H1408       H  0.09260432  0.53290195  0.68696110     0.18400
H1409       H  0.08464435  0.53272419  0.75758272     0.14700
H1410       H  0.47715793  0.53405764  0.61964486     0.14600
H1411       H  0.47929874  0.53248049  0.75799476     0.32700
H1412       H  0.08245454  0.53372936  0.62019816     0.35500
C1413       C  0.03127361  0.66210345  0.86468430     0.21100
C1414       C  0.03237823  0.69052950  0.88402275    -0.38800
C1415       C  0.03129874  0.72040530  0.86682605     0.20100
C1416       C  0.02933151  0.72186142  0.83289893     0.22700
C1417       C  0.02837894  0.69340859  0.81346471    -0.39300
C1418       C  0.02951092  0.66348436  0.83071781     0.21500
N1419       N  0.03230265  0.63080084  0.87521113    -0.32600
C1420       C  0.03104776  0.61210000  0.84776305    -0.10100
C1421       C  0.02966680  0.63153352  0.81949252    -0.28900
N1422       N  0.02913897  0.75324427  0.82250728    -0.45500
C1423       C  0.03068173  0.77185504  0.85001551    -0.04800
C1424       C  0.03244589  0.75224653  0.87813975    -0.22200
H1425       H  0.53414734  0.68942411  0.91047755     0.19600
H1426       H  0.02712718  0.69449580  0.78690343     0.18400
H1427       H  0.02873493  0.62332989  0.79422005     0.14700
H1428       H  0.53503107  0.76016508  0.90337589     0.14600
H1429       H  0.53463944  0.62271025  0.89949141     0.32700
H1430       H  0.02782907  0.76145339  0.79824824     0.35500
C1431       C  0.35171363  0.51428301  0.66176537     0.21100
C1432       C  0.35203492  0.99505553  0.69047905    -0.38800
C1433       C  0.35056432  0.51245486  0.72016580     0.20100
C1434       C  0.34886669  0.54641616  0.72113789     0.22700
C1435       C  0.34839538  0.56567128  0.69244832    -0.39300
C1436       C  0.34986461  0.54825552  0.66278262     0.21500
N1437       N  0.35265959  0.00364812  0.63052518    -0.32600
C1438       C  0.35161205  0.53111029  0.61156391    -0.10100
C1439       C  0.34954398  0.55935951  0.63077580    -0.28900
N1440       N  0.34799163  0.55705370  0.75234014    -0.45500
C1441       C  0.34956600  0.52976173  0.77145663    -0.04800
C1442       C  0.35063291  0.00138184  0.75223155    -0.22200
H1443       H  0.35353428  0.96856031  0.68974777     0.19600
H1444       H  0.34698449  0.59224339  0.69317581     0.18400
H1445       H  0.34808040  0.58461574  0.62239436     0.14700
H1446       H  0.35096776  0.97605535  0.76049931     0.14600
H1447       H  0.35283999  0.97921594  0.62268886     0.32700
H1448       H  0.34699457  0.58144543  0.76010988     0.35500
C1449       C  0.16109605  0.51545258  0.84771676     0.21100
C1450       C  0.18946017  0.99596521  0.84827650    -0.38800
C1451       C  0.21928555  0.51311659  0.84958728     0.20100
C1452       C  0.22073913  0.54713459  0.84989249     0.22700
C1453       C  0.19237560  0.56667679  0.84914659    -0.39300
C1454       C  0.16252004  0.54947613  0.84810367     0.21500
N1455       N  0.12981369  0.00501630  0.84702371    -0.32600
C1456       C  0.11119826  0.53259878  0.84729219    -0.10100
C1457       C  0.13066290  0.56082193  0.84751378    -0.28900
N1458       N  0.25204182  0.55746730  0.85078936    -0.45500
C1459       C  0.27058021  0.52984989  0.85152646    -0.04800
C1460       C  0.25107892  0.00166239  0.85051321    -0.22200
H1461       H  0.18835785  0.96943019  0.84791694     0.19600
H1462       H  0.19347509  0.59327733  0.84944455     0.18400
H1463       H  0.12252990  0.58615743  0.84780400     0.14700
H1464       H  0.25906823  0.97629735  0.84967738     0.14600
H1465       H  0.12169356  0.98066796  0.84589412     0.32700
H1466       H  0.26035137  0.58179256  0.85096431     0.35500
C1467       C  0.35039338  0.83380370  0.72280327     0.21100
C1468       C  0.35135463  0.81470205  0.69416046    -0.38800
C1469       C  0.35110199  0.83233376  0.66446362     0.20100
C1470       C  0.34987600  0.86635312  0.66338264     0.22700
C1471       C  0.34837602  0.88537827  0.69204743    -0.39300
C1472       C  0.34891557  0.86779043  0.72174774     0.21500
N1473       N  0.35126642  0.82303383  0.75403077    -0.32600
C1474       C  0.35082318  0.85035527  0.77297084    -0.10100
C1475       C  0.34883098  0.87875238  0.75374858    -0.28900
N1476       N  0.35052733  0.87722792  0.63213752    -0.45500
C1477       C  0.35222689  0.84988822  0.61326455    -0.04800
C1478       C  0.35223575  0.82143521  0.63248021    -0.22200
H1479       H  0.35259066  0.78811715  0.69494071     0.19600
H1480       H  0.34734636  0.91189961  0.69128705     0.18400
H1481       H  0.34722592  0.90397013  0.76203336     0.14700
H1482       H  0.35315517  0.79620584  0.62410409     0.14600
H1483       H  0.35270251  0.79867103  0.76192258     0.32700
H1484       H  0.34908448  0.90163071  0.62416849     0.35500
C1485       C  0.16200574  0.86672495  0.85030521     0.21100
C1486       C  0.19062649  0.88583209  0.85179634    -0.38800
C1487       C  0.22022327  0.86834609  0.85120720     0.20100
C1488       C  0.22126190  0.83440401  0.84905508     0.22700
C1489       C  0.19261088  0.81524137  0.84747894    -0.39300
C1490       C  0.16296513  0.83276053  0.84830436     0.21500
N1491       N  0.13088495  0.87752576  0.85051486    -0.32600
C1492       C  0.11185166  0.85019792  0.84930519    -0.10100
C1493       C  0.13094192  0.82182944  0.84741290    -0.28900
N1494       N  0.25246687  0.82375117  0.84894782    -0.45500
C1495       C  0.27137377  0.85107296  0.85152867    -0.04800
C1496       C  0.25213620  0.87941176  0.85245244    -0.22200
H1497       H  0.18989501  0.91231731  0.85357575     0.19600
H1498       H  0.19334633  0.78868453  0.84586349     0.18400
H1499       H  0.12247704  0.79662529  0.84597083     0.14700
H1500       H  0.26030555  0.90473699  0.85313710     0.14600
H1501       H  0.12323919  0.90202648  0.85028874     0.32700
H1502       H  0.26043425  0.79937638  0.84764923     0.35500
C1503       C  0.34791612  0.66037066  0.86958817     0.21100
C1504       C  0.34978159  0.68879092  0.88906576    -0.38800
C1505       C  0.34857297  0.71879476  0.87187468     0.20100
C1506       C  0.34529352  0.72022440  0.83805313     0.22700
C1507       C  0.34307525  0.69191102  0.81869703    -0.39300
C1508       C  0.34467201  0.66203166  0.83577343     0.21500
N1509       N  0.34959432  0.62888082  0.87963245    -0.32600
C1510       C  0.34795197  0.61052893  0.85187514    -0.10100
C1511       C  0.34429199  0.63035704  0.82417900    -0.28900
N1512       N  0.34529329  0.75148561  0.82747859    -0.45500
C1513       C  0.34911175  0.77028524  0.85459046    -0.04800
C1514       C  0.35071566  0.75077693  0.88290048    -0.22200
H1515       H  0.35260401  0.68762880  0.91549759     0.19600
H1516       H  0.34080529  0.69306432  0.79221102     0.18400
H1517       H  0.34225868  0.62274419  0.79886374     0.14700
H1518       H  0.35261269  0.75879707  0.90815374     0.14600
H1519       H  0.35103736  0.62051212  0.90388194     0.32700
H1520       H  0.34330456  0.75945342  0.80319972     0.35500
C1521       C  0.86373239  0.36289116  0.36518449     0.46200
H1522       H  0.87944333  0.37849880  0.38028824    -0.02800
C1523       C  0.82758627  0.32645252  0.32931442     0.46300
H1524       H  0.81178930  0.31080237  0.31359428    -0.02800
C1525       C  0.82714093  0.36958574  0.37116742    -0.16500
C1526       C  0.87056046  0.36870314  0.32856686    -0.16300
C1527       C  0.86931853  0.32633956  0.37243151    -0.16600
C1528       C  0.80759660  0.35018902  0.35182763    -0.16600
C1529       C  0.85104685  0.34937265  0.30920530    -0.16200
C1530       C  0.84997288  0.30660085  0.35323500    -0.16500
C1531       C  0.86288133  0.01818812  0.36406667     0.46200
H1532       H  0.87888054  0.50309678  0.37945424    -0.02800
C1533       C  0.82637740  0.05395109  0.32774827     0.46300
H1534       H  0.81032709  0.06933491  0.31195716    -0.02800
C1535       C  0.86900320  0.01158735  0.32747121    -0.16500
C1536       C  0.82642444  0.01130918  0.37055787    -0.16300
C1537       C  0.86856988  0.05494651  0.37035267    -0.16600
C1538       C  0.84963362  0.03083895  0.30780204    -0.16600
C1539       C  0.80671573  0.03045881  0.35107759    -0.16200
C1540       C  0.84895243  0.07424272  0.35098740    -0.16500
C1541       C  0.51905820  0.01972929  0.36151564     0.46200
H1542       H  0.00393444  0.50415837  0.37754578    -0.02800
C1543       C  0.55485000  0.05594137  0.32436153     0.46300
H1544       H  0.57042469  0.07172761  0.30824286    -0.02800
C1545       C  0.55574795  0.01314189  0.36691174    -0.16500
C1546       C  0.51180950  0.01377806  0.32508944    -0.16300
C1547       C  0.51287661  0.05633689  0.36775641    -0.16600
C1548       C  0.57501272  0.03262966  0.34710381    -0.16600
C1549       C  0.53120495  0.03287239  0.30499045    -0.16200
C1550       C  0.53213256  0.07588837  0.34798667    -0.16500
C1551       C  0.51979099  0.36439999  0.36278473     0.46200
H1552       H  0.00435901  0.37974143  0.37858708    -0.02800
C1553       C  0.55521418  0.32769920  0.32611866     0.46300
H1554       H  0.57067873  0.31174831  0.31023630    -0.02800
C1555       C  0.55649230  0.37024524  0.36870239    -0.16500
C1556       C  0.51276887  0.32788606  0.36895954    -0.16300
C1557       C  0.51375444  0.37122723  0.32627660    -0.16600
C1558       C  0.57564171  0.35053061  0.34911873    -0.16600
C1559       C  0.53181588  0.30809731  0.34949873    -0.16200
C1560       C  0.53270542  0.35165441  0.30640668    -0.16500
C1561       C  0.52166325  0.36420946  0.01765885     0.46200
H1562       H  0.00588537  0.37955986  0.50231907    -0.02800
C1563       C  0.55747580  0.32774481  0.05390368     0.46300
H1564       H  0.57310429  0.31176987  0.06952738    -0.02800
C1565       C  0.55828185  0.37022043  0.01095669    -0.16500
C1566       C  0.51560571  0.37086824  0.05431945    -0.16300
C1567       C  0.51525803  0.32763504  0.01133793    -0.16600
C1568       C  0.57766920  0.35038117  0.03016501    -0.16600
C1569       C  0.53488369  0.35141142  0.07390652    -0.16200
C1570       C  0.53423737  0.30797880  0.03091944    -0.16500
C1571       C  0.86524525  0.36275506  0.02077622     0.46200
H1572       H  0.88038410  0.37837946  0.50485514    -0.02800
C1573       C  0.82949063  0.32602104  0.05733872     0.46300
H1574       H  0.81401343  0.30997208  0.07327830    -0.02800
C1575       C  0.87112061  0.36963572  0.05730049    -0.16500
C1576       C  0.82859112  0.36805792  0.01412752    -0.16300
C1577       C  0.87268537  0.32626549  0.01530984    -0.16600
C1578       C  0.85177490  0.35006933  0.07704760    -0.16600
C1579       C  0.80932356  0.34807969  0.03347242    -0.16200
C1580       C  0.85340825  0.30648141  0.03480853    -0.16500
C1581       C  0.52032739  0.02005913  0.01624182     0.46200
H1582       H  0.00478574  0.50440754  0.50099323    -0.02800
C1583       C  0.55625433  0.05621716  0.05265145     0.46300
H1584       H  0.57185974  0.07204136  0.06839872    -0.02800
C1585       C  0.55703052  0.01374816  0.01022349    -0.16500
C1586       C  0.51452822  0.05659545  0.00931083    -0.16300
C1587       C  0.51324472  0.01410015  0.05282858    -0.16600
C1588       C  0.57644573  0.03312208  0.02962527    -0.16600
C1589       C  0.53374960  0.07611758  0.02880252    -0.16200
C1590       C  0.53239966  0.03343489  0.07249997    -0.16500
C1591       C  0.86469708  0.01891866  0.01902119     0.46200
H1592       H  0.88022351  0.50369133  0.50320073    -0.02800
C1593       C  0.82840268  0.05487557  0.05548863     0.46300
H1594       H  0.81261758  0.07052376  0.07135997    -0.02800
C1595       C  0.82807111  0.01308695  0.01250772    -0.16500
C1596       C  0.87035979  0.01176042  0.05558169    -0.16300
C1597       C  0.87166263  0.05556600  0.01336562    -0.16600
C1598       C  0.80852354  0.03255162  0.03177950    -0.16600
C1599       C  0.85103886  0.03114859  0.07529440    -0.16200
C1600       C  0.85200966  0.07489206  0.03277893    -0.16500
O1601       O  0.90682644  0.47147028  0.03828562    -0.72200
O1602       O  0.97819161  0.41063991  0.03747344    -0.73200
O1603       O  0.91191053  0.40556055  0.03947868    -0.61800
O1604       O  0.97296258  0.47698036  0.03639581    -0.70200
O1605       O  0.98043114  0.47728934  0.08987386    -0.69800
O1606       O  0.90584296  0.40548830  0.09316881    -0.61000
O1607       O  0.97902629  0.40411226  0.09108921    -0.73500
O1608       O  0.90741883  0.47872839  0.09178800    -0.72300
Cu1609     Cu  0.94246286  0.44110661  0.03687106     1.04600
Cu1610     Cu  0.94325891  0.44143269  0.09418982     1.04300
C1611       C  0.89577863  0.48613343  0.06336697     0.94000
C1612       C  0.99000669  0.39636720  0.06241864     0.93100
C1613       C  0.89746217  0.39448373  0.06482033     0.85300
C1614       C  0.98768537  0.48853787  0.06111084     0.91600
O1615       O  0.91206474  0.40455277  0.34480721    -0.72200
O1616       O  0.97075115  0.47816153  0.34298134    -0.73200
O1617       O  0.90488993  0.47056882  0.34432608    -0.61800
O1618       O  0.97814689  0.41228215  0.34351914    -0.70200
O1619       O  0.97642697  0.40371170  0.29023993    -0.69800
O1620       O  0.90573939  0.47854745  0.29088229    -0.61000
O1621       O  0.97857464  0.47662790  0.28948719    -0.73500
O1622       O  0.90381876  0.40518823  0.29147238    -0.72300
Cu1623     Cu  0.94148590  0.44138603  0.34496913     1.04600
Cu1624     Cu  0.94107920  0.44101306  0.28777317     1.04300
C1625       C  0.89673395  0.39364671  0.32014813     0.94000
C1626       C  0.98580085  0.48866162  0.31773762     0.93100
C1627       C  0.89408461  0.48568813  0.31943374     0.85300
C1628       C  0.98862199  0.39701509  0.31855277     0.91600
O1629       O  0.54035843  0.47539903  0.47192409    -0.72200
O1630       O  0.53994244  0.40842584  0.40750764    -0.73200
O1631       O  0.54102770  0.40937007  0.47331047    -0.61800
O1632       O  0.53942707  0.47440647  0.40587063    -0.70200
O1633       O  0.59305920  0.47910457  0.40229481    -0.69800
O1634       O  0.59472981  0.40583302  0.47595565    -0.61000
O1635       O  0.59357588  0.40538808  0.40298989    -0.73500
O1636       O  0.59403640  0.47880113  0.47566473    -0.72300
Cu1637     Cu  0.53923210  0.44191097  0.43971506     1.04600
Cu1638     Cu  0.59659458  0.44234323  0.43913943     1.04300
C1639       C  0.56532181  0.48830003  0.48488145     0.94000
C1640       C  0.56487140  0.39564939  0.39415759     0.93100
C1641       C  0.56619285  0.39621201  0.48571086     0.85300
C1642       C  0.56424801  0.48783301  0.39270865     0.91600
O1643       O  0.91290012  0.03913525  0.47719014    -0.72200
O1644       O  0.97090319  0.03948266  0.40291158    -0.73200
O1645       O  0.97874991  0.03963994  0.46850832    -0.61800
O1646       O  0.90487210  0.03879062  0.41122173    -0.70200
O1647       O  0.90572191  0.09207531  0.40220552    -0.69800
O1648       O  0.97700944  0.09295093  0.47682460    -0.61000
O1649       O  0.97880445  0.09293563  0.40364398    -0.73500
O1650       O  0.90384230  0.09235787  0.47547835    -0.72300
Cu1651     Cu  0.94183484  0.03826199  0.43993556     1.04600
Cu1652     Cu  0.94130853  0.09538955  0.43950210     1.04300
C1653       C  0.89737709  0.06386800  0.48783436     0.94000
C1654       C  0.98627245  0.06441843  0.39224483     0.93100
C1655       C  0.98928448  0.06458736  0.48361397     0.85300
C1656       C  0.89389169  0.06344881  0.39580582     0.91600
O1657       O  0.84399797  0.47361036  0.40951703    -0.72200
O1658       O  0.84507492  0.40690173  0.47534635    -0.73200
O1659       O  0.84431811  0.40787020  0.40937987    -0.61800
O1660       O  0.84478546  0.47333311  0.47544363    -0.70200
O1661       O  0.79107592  0.47718838  0.47946587    -0.69800
O1662       O  0.79063100  0.40330328  0.40750585    -0.61000
O1663       O  0.79146011  0.40387987  0.48062677    -0.73500
O1664       O  0.79022246  0.47651475  0.40655578    -0.72300
Cu1665     Cu  0.84554791  0.44042099  0.44248352     1.04600
Cu1666     Cu  0.78814119  0.44017822  0.44363108     1.04300
C1667       C  0.81874087  0.48610653  0.39663342     0.94000
C1668       C  0.82022696  0.39393883  0.48895488     0.93100
C1669       C  0.81919786  0.39464875  0.39704915     0.85300
C1670       C  0.81984379  0.48681970  0.48811407     0.91600
O1671       O  0.90468753  0.34348360  0.41370065    -0.72200
O1672       O  0.97957386  0.34436495  0.47011723    -0.73200
O1673       O  0.97077046  0.34460745  0.40424570    -0.61800
O1674       O  0.91393160  0.34349222  0.47952188    -0.70200
O1675       O  0.90513409  0.29021172  0.47760877    -0.69800
O1676       O  0.97961701  0.29132529  0.40589110    -0.61000
O1677       O  0.97802755  0.29106247  0.47913207    -0.73500
O1678       O  0.90697952  0.29028553  0.40468838    -0.72300
Cu1679     Cu  0.94220150  0.34504537  0.44187549     1.04600
Cu1680     Cu  0.94248758  0.28793721  0.44183662     1.04300
C1681       C  0.89443135  0.31855845  0.39826210     0.94000
C1682       C  0.99011140  0.31955380  0.48563053     0.93100
C1683       C  0.98641265  0.31983900  0.39382705     0.85300
C1684       C  0.89854744  0.31850535  0.49001957     0.91600
C1685       C  0.72257948  0.03486600  0.01360487     0.21100
C1686       C  0.69418903  0.03561750  0.49410015    -0.38800
C1687       C  0.66420012  0.03529288  0.01138859     0.20100
C1688       C  0.66273284  0.03463276  0.04540082     0.22700
C1689       C  0.69103553  0.03428372  0.06482637    -0.39300
C1690       C  0.72091407  0.03437691  0.04761990     0.21500
N1691       N  0.75403557  0.03404352  0.00334921    -0.32600
C1692       C  0.77232608  0.03284678  0.03111371    -0.10100
C1693       C  0.75258435  0.03347526  0.05913875    -0.28900
N1694       N  0.63146302  0.03388951  0.05596505    -0.45500
C1695       C  0.61273069  0.03358821  0.02859446    -0.04800
C1696       C  0.63225087  0.03491595  0.00023965    -0.22200
H1697       H  0.69535144  0.53586703  0.46749761     0.19600
H1698       H  0.68986942  0.03359789  0.09141769     0.18400
H1699       H  0.76041206  0.03288213  0.08452661     0.14700
H1700       H  0.62419169  0.53580891  0.47494095     0.14600
H1701       H  0.76250869  0.53484060  0.47906265     0.32700
H1702       H  0.62340262  0.03310473  0.08034432     0.35500
C1703       C  0.86891998  0.16096376  0.03307130     0.21100
C1704       C  0.88825833  0.18945850  0.03244462    -0.38800
C1705       C  0.87098433  0.21912935  0.03414952     0.20100
C1706       C  0.83707348  0.22034227  0.03657614     0.22700
C1707       C  0.81770748  0.19181895  0.03753664    -0.39300
C1708       C  0.83499955  0.16212005  0.03560500     0.21500
N1709       N  0.87944584  0.12977813  0.03144346    -0.32600
C1710       C  0.85199199  0.11100674  0.03265663    -0.10100
C1711       C  0.82382192  0.13020671  0.03563072    -0.28900
N1712       N  0.82665765  0.25160850  0.03732704    -0.45500
C1713       C  0.85411418  0.27033515  0.03492409    -0.04800
C1714       C  0.88227404  0.25098013  0.03345399    -0.22200
H1715       H  0.91476312  0.18859500  0.53040387     0.19600
H1716       H  0.79118738  0.19269264  0.03938020     0.18400
H1717       H  0.79859576  0.12188887  0.03737644     0.14700
H1718       H  0.90760092  0.25903213  0.03246218     0.14600
H1719       H  0.90380852  0.12183500  0.03064206     0.32700
H1720       H  0.80235843  0.25973770  0.03876044     0.35500
C1721       C  0.53380923  0.22191152  0.01301008     0.21100
C1722       C  0.53307738  0.19352858  0.99356326    -0.38800
C1723       C  0.53391444  0.16361592  0.01079014     0.20100
C1724       C  0.53555214  0.16216734  0.04476059     0.22700
C1725       C  0.53644379  0.19049857  0.06417577    -0.39300
C1726       C  0.53546838  0.22032634  0.04694481     0.21500
N1727       N  0.53310244  0.25332564  0.00271169    -0.32600
C1728       C  0.53395127  0.27174848  0.03041480    -0.10100
C1729       C  0.53585425  0.25201911  0.05836439    -0.28900
N1730       N  0.53586758  0.13088561  0.05526467    -0.45500
C1731       C  0.53397839  0.11226336  0.02784688    -0.04800
C1732       C  0.53319536  0.13174600  0.99954334    -0.22200
H1733       H  0.53165867  0.19467673  0.46708568     0.19600
H1734       H  0.03768083  0.18939754  0.09073866     0.18400
H1735       H  0.03705458  0.25964761  0.08367467     0.14700
H1736       H  0.53267752  0.12375205  0.47419555     0.14600
H1737       H  0.53301228  0.26160745  0.47837343     0.32700
H1738       H  0.03678001  0.12267351  0.07961429     0.35500
C1739       C  0.72356469  0.34592654  0.01462981     0.21100
C1740       C  0.69535550  0.34792508  0.99501938    -0.38800
C1741       C  0.66530715  0.34718981  0.01210261     0.20100
C1742       C  0.66359156  0.34410498  0.04598071     0.22700
C1743       C  0.69172616  0.34159310  0.06548289    -0.39300
C1744       C  0.72170217  0.34286943  0.04850650     0.21500
N1745       N  0.75502825  0.34780382  0.00466500    -0.36000
C1746       C  0.77316930  0.34659444  0.03250652    -0.10100
C1747       C  0.75329213  0.34287436  0.06023979    -0.28900
N1748       N  0.63230617  0.34497463  0.05641418    -0.45500
C1749       C  0.61387709  0.34913416  0.02911605    -0.04800
C1750       C  0.63355044  0.35004037  0.00087796    -0.22200
H1751       H  0.69671872  0.35077798  0.46856777     0.19600
H1752       H  0.69038204  0.33963957  0.09200903     0.18400
H1753       H  0.76093149  0.34134397  0.08565066     0.14700
H1754       H  0.62577567  0.35187990  0.47555048     0.14600
H1755       H  0.76351554  0.34922692  0.48042439     0.32700
H1756       H  0.62400758  0.34345206  0.08073087     0.35500
C1757       C  0.53413191  0.36893333  0.16032318     0.21100
C1758       C  0.53261453  0.38815880  0.18892672    -0.38800
C1759       C  0.53334728  0.37063908  0.21874666     0.20100
C1760       C  0.53572408  0.33670544  0.21988670     0.22700
C1761       C  0.53752874  0.31757001  0.19137682    -0.39300
C1762       C  0.53655302  0.33502147  0.16166447     0.21500
N1763       N  0.53335747  0.37939956  0.12892542    -0.32600
C1764       C  0.53483398  0.35183484  0.11025880    -0.10100
C1765       C  0.53738400  0.32382627  0.12987131    -0.28900
N1766       N  0.53585882  0.32589568  0.25107903    -0.45500
C1767       C  0.53307176  0.35301138  0.27009403    -0.04800
C1768       C  0.53196973  0.38149241  0.25079823    -0.22200
H1769       H  0.53066891  0.41469869  0.18803602     0.19600
H1770       H  0.03933030  0.29101928  0.19226256     0.18400
H1771       H  0.03921037  0.29858225  0.12210630     0.14700
H1772       H  0.53101436  0.40675626  0.25901242     0.14600
H1773       H  0.53279035  0.40378664  0.12082489     0.32700
H1774       H  0.03747521  0.30150906  0.25887009     0.35500
C1775       C  0.51441678  0.03180904  0.21859832     0.21100
C1776       C  0.99535292  0.03236474  0.18989843    -0.38800
C1777       C  0.51303868  0.03296013  0.16013445     0.20100
C1778       C  0.54702306  0.03310546  0.15912920     0.22700
C1779       C  0.56602720  0.03265260  0.18775058    -0.39300
C1780       C  0.54840932  0.03205688  0.21743445     0.21500
N1781       N  0.00368829  0.03162245  0.24994502    -0.32600
C1782       C  0.53111155  0.03171706  0.26872934    -0.10100
C1783       C  0.55941221  0.03222068  0.24935160    -0.28900
N1784       N  0.55799718  0.03369460  0.12795266    -0.45500
C1785       C  0.53091395  0.03342768  0.10882389    -0.04800
C1786       C  0.00233454  0.03345570  0.12801621    -0.22200
H1787       H  0.96877115  0.03232564  0.19068234     0.19600
H1788       H  0.59260411  0.03290190  0.18696093     0.18400
H1789       H  0.58464480  0.03272420  0.25758231     0.14700
H1790       H  0.97715783  0.03405792  0.11964500     0.14600
H1791       H  0.97929820  0.03248034  0.25799497     0.32700
H1792       H  0.58245485  0.03372948  0.12019821     0.35500
C1793       C  0.53127351  0.16210337  0.36468421     0.21100
C1794       C  0.53237813  0.19052947  0.38402259    -0.38800
C1795       C  0.53129864  0.22040518  0.36682598     0.20100
C1796       C  0.52933134  0.22186140  0.33289888     0.22700
C1797       C  0.52837884  0.19340845  0.31346486    -0.39300
C1798       C  0.52951083  0.16348419  0.33071771     0.21500
N1799       N  0.53230259  0.13080084  0.37521101    -0.32600
C1800       C  0.53104784  0.11209996  0.34776293    -0.10100
C1801       C  0.52966677  0.13153337  0.31949228    -0.28900
N1802       N  0.52913888  0.25324406  0.32250775    -0.45500
C1803       C  0.53068168  0.27185497  0.35001538    -0.04800
C1804       C  0.53244580  0.25224640  0.37813957    -0.22200
H1805       H  0.03414777  0.18942438  0.41047778     0.19600
H1806       H  0.52712659  0.19449577  0.28690355     0.18400
H1807       H  0.52873545  0.12332973  0.29421980     0.14700
H1808       H  0.03503112  0.26016516  0.40337563     0.14600
H1809       H  0.03463945  0.12271074  0.39949015     0.32700
H1810       H  0.52782883  0.26145394  0.29824673     0.35500
C1811       C  0.85171365  0.01428306  0.16176542     0.21100
C1812       C  0.85203509  0.49505518  0.19047897    -0.38800
C1813       C  0.85056432  0.01245514  0.22016593     0.20100
C1814       C  0.84886679  0.04641628  0.22113793     0.22700
C1815       C  0.84839539  0.06567153  0.19244850    -0.39300
C1816       C  0.84986476  0.04825563  0.16278271     0.21500
N1817       N  0.85265960  0.50364768  0.13052497    -0.32600
C1818       C  0.85161215  0.03111039  0.11156390    -0.10100
C1819       C  0.84954397  0.05935964  0.13077588    -0.28900
N1820       N  0.84799162  0.05705446  0.25234044    -0.45500
C1821       C  0.84956599  0.02976176  0.27145667    -0.04800
C1822       C  0.85063301  0.50138214  0.25223152    -0.22200
H1823       H  0.85353490  0.46856005  0.18974777     0.19600
H1824       H  0.84698460  0.09224350  0.19317603     0.18400
H1825       H  0.84808074  0.08461593  0.12239447     0.14700
H1826       H  0.85096797  0.47605569  0.26049938     0.14600
H1827       H  0.85284009  0.47921709  0.12268900     0.32700
H1828       H  0.84699448  0.08144345  0.26010946     0.35500
C1829       C  0.66109613  0.01545273  0.34771691     0.21100
C1830       C  0.68946021  0.49596521  0.34827664    -0.38800
C1831       C  0.71928573  0.01311652  0.34958733     0.20100
C1832       C  0.72073931  0.04713462  0.34989266     0.22700
C1833       C  0.69237584  0.06667693  0.34914655    -0.39300
C1834       C  0.66252025  0.04947654  0.34810361     0.21500
N1835       N  0.62981365  0.50501612  0.34702377    -0.32600
C1836       C  0.61119837  0.03259891  0.34729231    -0.10100
C1837       C  0.63066306  0.06082235  0.34751371    -0.28900
N1838       N  0.75204193  0.05746724  0.35078935    -0.45500
C1839       C  0.77058032  0.02984982  0.35152653    -0.04800
C1840       C  0.75107890  0.50166256  0.35051334    -0.22200
H1841       H  0.68835813  0.46943023  0.34791717     0.19600
H1842       H  0.69347550  0.09327747  0.34944413     0.18400
H1843       H  0.62252994  0.08615777  0.34780364     0.14700
H1844       H  0.75906833  0.47629756  0.34967757     0.14600
H1845       H  0.62169392  0.48066848  0.34589431     0.32700
H1846       H  0.76035151  0.08179272  0.35096446     0.35500
C1847       C  0.85039323  0.33380394  0.22280352     0.21100
C1848       C  0.85135431  0.31470232  0.19416073    -0.38800
C1849       C  0.85110172  0.33233352  0.16446367     0.20100
C1850       C  0.84987601  0.36635289  0.16338262     0.22700
C1851       C  0.84837604  0.38537801  0.19204753    -0.39300
C1852       C  0.84891546  0.36779061  0.22174794     0.21500
N1853       N  0.85126622  0.32303407  0.25403092    -0.32600
C1854       C  0.85082319  0.35035557  0.27297094    -0.10100
C1855       C  0.84883092  0.37875290  0.25374870    -0.28900
N1856       N  0.85052744  0.37722717  0.13213770    -0.45500
C1857       C  0.85222690  0.34988786  0.11326460    -0.04800
C1858       C  0.85223554  0.32143459  0.13248027    -0.22200
H1859       H  0.85259013  0.28811745  0.19494136     0.19600
H1860       H  0.84734631  0.41189942  0.19128711     0.18400
H1861       H  0.84722649  0.40397075  0.26203333     0.14700
H1862       H  0.85315455  0.29620519  0.12410423     0.14600
H1863       H  0.85270218  0.29867091  0.26192294     0.32700
H1864       H  0.84908509  0.40163171  0.12416808     0.35500
C1865       C  0.66200570  0.36672493  0.35030533     0.21100
C1866       C  0.69062647  0.38583211  0.35179642    -0.38800
C1867       C  0.72022329  0.36834610  0.35120722     0.20100
C1868       C  0.72126188  0.33440399  0.34905516     0.22700
C1869       C  0.69261087  0.31524135  0.34747888    -0.39300
C1870       C  0.66296510  0.33276056  0.34830421     0.21500
N1871       N  0.63088479  0.37752585  0.35051486    -0.32600
C1872       C  0.61185160  0.35019783  0.34930517    -0.10100
C1873       C  0.63094188  0.32182947  0.34741283    -0.28900
N1874       N  0.75246684  0.32375118  0.34894781    -0.45500
C1875       C  0.77137376  0.35107296  0.35152873    -0.04800
C1876       C  0.75213626  0.37941179  0.35245253    -0.22200
H1877       H  0.68989509  0.41231728  0.35357601     0.19600
H1878       H  0.69334647  0.28868451  0.34586328     0.18400
H1879       H  0.62247702  0.29662533  0.34597061     0.14700
H1880       H  0.76030576  0.40473697  0.35313717     0.14600
H1881       H  0.62323904  0.40202591  0.35028913     0.32700
H1882       H  0.76043426  0.29937633  0.34764919     0.35500
C1883       C  0.84791613  0.16037068  0.36958804     0.21100
C1884       C  0.84978151  0.18879108  0.38906543    -0.38800
C1885       C  0.84857286  0.21879482  0.37187456     0.20100
C1886       C  0.84529368  0.22022454  0.33805300     0.22700
C1887       C  0.84307539  0.19191109  0.31869701    -0.39300
C1888       C  0.84467205  0.16203176  0.33577327     0.21500
N1889       N  0.84959423  0.12888097  0.37963206    -0.32600
C1890       C  0.84795207  0.11052904  0.35187505    -0.10100
C1891       C  0.84429208  0.13035722  0.32417879    -0.28900
N1892       N  0.84529339  0.25148564  0.32747892    -0.45500
C1893       C  0.84911178  0.27028530  0.35459037    -0.04800
C1894       C  0.85071561  0.25077696  0.38290040    -0.22200
H1895       H  0.85260378  0.18762912  0.41549735     0.19600
H1896       H  0.84080559  0.19306450  0.29221093     0.18400
H1897       H  0.84225902  0.12274458  0.29886351     0.14700
H1898       H  0.85261249  0.25879735  0.40815357     0.14600
H1899       H  0.85103725  0.12051160  0.40388286     0.32700
H1900       H  0.84330482  0.25945425  0.30319862     0.35500
C1901       C  0.86373249  0.36289113  0.86518450     0.46200
H1902       H  0.87944341  0.37849878  0.88028828    -0.02800
C1903       C  0.82758627  0.32645242  0.82931439     0.46300
H1904       H  0.81178925  0.31080215  0.81359438    -0.02800
C1905       C  0.82714097  0.36958565  0.87116735    -0.16500
C1906       C  0.87056046  0.36870313  0.82856684    -0.16300
C1907       C  0.86931858  0.32633952  0.87243156    -0.16600
C1908       C  0.80759662  0.35018897  0.85182749    -0.16600
C1909       C  0.85104682  0.34937258  0.80920525    -0.16200
C1910       C  0.84997284  0.30660079  0.85323495    -0.16500
C1911       C  0.86288128  0.01818807  0.86406673     0.46200
H1912       H  0.87888066  0.50309678  0.87945428    -0.02800
C1913       C  0.82637728  0.05395118  0.82774818     0.46300
H1914       H  0.81032697  0.06933523  0.81195728    -0.02800
C1915       C  0.86900315  0.01158730  0.82747130    -0.16500
C1916       C  0.82642435  0.01130922  0.87055781    -0.16300
C1917       C  0.86856983  0.05494642  0.87035261    -0.16600
C1918       C  0.84963354  0.03083882  0.80780203    -0.16600
C1919       C  0.80671562  0.03045880  0.85107747    -0.16200
C1920       C  0.84895246  0.07424269  0.85098724    -0.16500
C1921       C  0.51905811  0.01972931  0.86151568     0.46200
H1922       H  0.00393436  0.50415830  0.87754575    -0.02800
C1923       C  0.55484997  0.05594135  0.82436154     0.46300
H1924       H  0.57042478  0.07172760  0.80824291    -0.02800
C1925       C  0.55574786  0.01314190  0.86691174    -0.16500
C1926       C  0.51180940  0.01377812  0.82508945    -0.16300
C1927       C  0.51287663  0.05633694  0.86775648    -0.16600
C1928       C  0.57501263  0.03262967  0.84710384    -0.16600
C1929       C  0.53120493  0.03287237  0.80499046    -0.16200
C1930       C  0.53213254  0.07588843  0.84798658    -0.16500
C1931       C  0.51979098  0.36440004  0.86278469     0.46200
H1932       H  0.00435895  0.37974152  0.87858692    -0.02800
C1933       C  0.55521423  0.32769917  0.82611862     0.46300
H1934       H  0.57067865  0.31174806  0.81023630    -0.02800
C1935       C  0.55649228  0.37024524  0.86870244    -0.16500
C1936       C  0.51276892  0.32788613  0.86895957    -0.16300
C1937       C  0.51375443  0.37122724  0.82627659    -0.16600
C1938       C  0.57564172  0.35053058  0.84911879    -0.16600
C1939       C  0.53181594  0.30809737  0.84949865    -0.16200
C1940       C  0.53270540  0.35165450  0.80640666    -0.16500
C1941       C  0.52166322  0.36420946  0.51765888     0.46200
H1942       H  0.00588550  0.37955989  0.00231900    -0.02800
C1943       C  0.55747571  0.32774484  0.55390362     0.46300
H1944       H  0.57310433  0.31176991  0.56952719    -0.02800
C1945       C  0.55828184  0.37022039  0.51095665    -0.16500
C1946       C  0.51560570  0.37086825  0.55431951    -0.16300
C1947       C  0.51525799  0.32763503  0.51133790    -0.16600
C1948       C  0.57766916  0.35038115  0.53016512    -0.16600
C1949       C  0.53488370  0.35141149  0.57390656    -0.16200
C1950       C  0.53423730  0.30797879  0.53091923    -0.16500
C1951       C  0.86524529  0.36275506  0.52077610     0.46200
H1952       H  0.88038403  0.37837947  0.00485528    -0.02800
C1953       C  0.82949059  0.32602097  0.55733876     0.46300
H1954       H  0.81401353  0.30997195  0.57327846    -0.02800
C1955       C  0.87112063  0.36963569  0.55730041    -0.16500
C1956       C  0.82859114  0.36805786  0.51412744    -0.16300
C1957       C  0.87268537  0.32626547  0.51530980    -0.16600
C1958       C  0.85177487  0.35006927  0.57704757    -0.16600
C1959       C  0.80932355  0.34807971  0.53347239    -0.16200
C1960       C  0.85340824  0.30648138  0.53480856    -0.16500
C1961       C  0.52032740  0.02005911  0.51624181     0.46200
H1962       H  0.00478570  0.50440752  0.00099326    -0.02800
C1963       C  0.55625439  0.05621715  0.55265146     0.46300
H1964       H  0.57185985  0.07204128  0.56839879    -0.02800
C1965       C  0.55703055  0.01374810  0.51022354    -0.16500
C1966       C  0.51452824  0.05659542  0.50931085    -0.16300
C1967       C  0.51324470  0.01410014  0.55282850    -0.16600
C1968       C  0.57644577  0.03312212  0.52962529    -0.16600
C1969       C  0.53374975  0.07611756  0.52880243    -0.16200
C1970       C  0.53239967  0.03343484  0.57249991    -0.16500
C1971       C  0.86469707  0.01891874  0.51902129     0.46200
H1972       H  0.88022342  0.50369124  0.00320063    -0.02800
C1973       C  0.82840268  0.05487561  0.55548877     0.46300
H1974       H  0.81261762  0.07052367  0.57136027    -0.02800
C1975       C  0.82807115  0.01308702  0.51250777    -0.16500
C1976       C  0.87035980  0.01176048  0.55558178    -0.16300
C1977       C  0.87166265  0.05556602  0.51336565    -0.16600
C1978       C  0.80852358  0.03255167  0.53177960    -0.16600
C1979       C  0.85103880  0.03114863  0.57529449    -0.16200
C1980       C  0.85200966  0.07489208  0.53277901    -0.16500
O1981       O  0.90682640  0.47147022  0.53828555    -0.72200
O1982       O  0.97819163  0.41063992  0.53747348    -0.73200
O1983       O  0.91191058  0.40556052  0.53947871    -0.61800
O1984       O  0.97296252  0.47698035  0.53639575    -0.70200
O1985       O  0.98043117  0.47728936  0.58987376    -0.69800
O1986       O  0.90584289  0.40548826  0.59316887    -0.61000
O1987       O  0.97902629  0.40411225  0.59108917    -0.73500
O1988       O  0.90741880  0.47872839  0.59178799    -0.72300
Cu1989     Cu  0.94246287  0.44110658  0.53687104     1.04600
Cu1990     Cu  0.94325889  0.44143268  0.59418981     1.04300
C1991       C  0.89577861  0.48613340  0.56336695     0.94000
C1992       C  0.99000673  0.39636720  0.56241864     0.93100
C1993       C  0.89746221  0.39448366  0.56482034     0.85300
C1994       C  0.98768537  0.48853786  0.56111073     0.91600
O1995       O  0.91206464  0.40455275  0.84480720    -0.72200
O1996       O  0.97075102  0.47816161  0.84298129    -0.73200
O1997       O  0.90488980  0.47056865  0.84432604    -0.61800
O1998       O  0.97814676  0.41228214  0.84351905    -0.70200
O1999       O  0.97642700  0.40371169  0.79023984    -0.69800
O2000       O  0.90573933  0.47854738  0.79088225    -0.61000
O2001       O  0.97857465  0.47662795  0.78948713    -0.73500
O2002       O  0.90381873  0.40518813  0.79147229    -0.72300
Cu2003     Cu  0.94148578  0.44138601  0.84496909     1.04600
Cu2004     Cu  0.94107917  0.44101303  0.78777309     1.04300
C2005       C  0.89673392  0.39364665  0.82014807     0.94000
C2006       C  0.98580086  0.48866158  0.81773760     0.93100
C2007       C  0.89408460  0.48568807  0.81943372     0.85300
C2008       C  0.98862196  0.39701508  0.81855270     0.91600
O2009       O  0.54035845  0.47539924  0.97192403    -0.72200
O2010       O  0.53994241  0.40842568  0.90750782    -0.73200
O2011       O  0.54102769  0.40937022  0.97331069    -0.61800
O2012       O  0.53942704  0.47440633  0.90587055    -0.70200
O2013       O  0.59305919  0.47910458  0.90229489    -0.69800
O2014       O  0.59472981  0.40583305  0.97595570    -0.61000
O2015       O  0.59357588  0.40538808  0.90298993    -0.73500
O2016       O  0.59403648  0.47880114  0.97566486    -0.72300
Cu2017     Cu  0.53923209  0.44191100  0.93971511     1.04600
Cu2018     Cu  0.59659460  0.44234325  0.93913951     1.04300
C2019       C  0.56532185  0.48830008  0.98488151     0.94000
C2020       C  0.56487139  0.39564935  0.89415767     0.93100
C2021       C  0.56619286  0.39621213  0.98571101     0.85300
C2022       C  0.56424799  0.48783290  0.89270862     0.91600
O2023       O  0.91290001  0.03913528  0.97719011    -0.72200
O2024       O  0.97090327  0.03948260  0.90291177    -0.73200
O2025       O  0.97874974  0.03963988  0.96850848    -0.61800
O2026       O  0.90487213  0.03879054  0.91122169    -0.70200
O2027       O  0.90572165  0.09207528  0.90220550    -0.69800
O2028       O  0.97700938  0.09295094  0.97682448    -0.61000
O2029       O  0.97880423  0.09293565  0.90364384    -0.73500
O2030       O  0.90384227  0.09235793  0.97547831    -0.72300
Cu2031     Cu  0.94183480  0.03826191  0.93993562     1.04600
Cu2032     Cu  0.94130843  0.09538955  0.93950204     1.04300
C2033       C  0.89737696  0.06386804  0.98783426     0.94000
C2034       C  0.98627237  0.06441842  0.89224485     0.93100
C2035       C  0.98928436  0.06458736  0.98361399     0.85300
C2036       C  0.89389162  0.06344872  0.89580577     0.91600
O2037       O  0.84399797  0.47361052  0.90951707    -0.72200
O2038       O  0.84507497  0.40690160  0.97534620    -0.73200
O2039       O  0.84431806  0.40787023  0.90937965    -0.61800
O2040       O  0.84478540  0.47333299  0.97544364    -0.70200
O2041       O  0.79107594  0.47718842  0.97946580    -0.69800
O2042       O  0.79063097  0.40330325  0.90750584    -0.61000
O2043       O  0.79146015  0.40387989  0.98062672    -0.73500
O2044       O  0.79022245  0.47651472  0.90655575    -0.72300
Cu2045     Cu  0.84554789  0.44042099  0.94248346     1.04600
Cu2046     Cu  0.78814120  0.44017824  0.94363107     1.04300
C2047       C  0.81874085  0.48610649  0.89663333     0.94000
C2048       C  0.82022699  0.39393887  0.98895489     0.93100
C2049       C  0.81919780  0.39464881  0.89704894     0.85300
C2050       C  0.81984378  0.48681963  0.98811408     0.91600
O2051       O  0.90468750  0.34348363  0.91370073    -0.72200
O2052       O  0.97957385  0.34436502  0.97011727    -0.73200
O2053       O  0.97077047  0.34460750  0.90424573    -0.61800
O2054       O  0.91393163  0.34349229  0.97952199    -0.70200
O2055       O  0.90513414  0.29021176  0.97760886    -0.69800
O2056       O  0.97961698  0.29132534  0.90589114    -0.61000
O2057       O  0.97802756  0.29106252  0.97913210    -0.73500
O2058       O  0.90697953  0.29028554  0.90468848    -0.72300
Cu2059     Cu  0.94220149  0.34504541  0.94187554     1.04600
Cu2060     Cu  0.94248758  0.28793722  0.94183667     1.04300
C2061       C  0.89443131  0.31855843  0.89826223     0.94000
C2062       C  0.99011148  0.31955384  0.98563050     0.93100
C2063       C  0.98641257  0.31983903  0.89382700     0.85300
C2064       C  0.89854749  0.31850540  0.99001966     0.91600
C2065       C  0.72257960  0.03486583  0.51360497     0.21100
C2066       C  0.69418889  0.03561768  0.99410016    -0.38800
C2067       C  0.66420016  0.03529269  0.51138855     0.20100
C2068       C  0.66273283  0.03463252  0.54540066     0.22700
C2069       C  0.69103548  0.03428343  0.56482619    -0.39300
C2070       C  0.72091418  0.03437665  0.54761999     0.21500
N2071       N  0.75403568  0.03404344  0.50334941    -0.32600
C2072       C  0.77232617  0.03284666  0.53111400    -0.10100
C2073       C  0.75258445  0.03347507  0.55913919    -0.28900
N2074       N  0.63146297  0.03388930  0.55596516    -0.45500
C2075       C  0.61273071  0.03358807  0.52859443    -0.04800
C2076       C  0.63225092  0.03491584  0.50023964    -0.22200
H2077       H  0.69535134  0.53586747  0.96749756     0.19600
H2078       H  0.68986924  0.03359736  0.59141747     0.18400
H2079       H  0.76041205  0.03288158  0.58452710     0.14700
H2080       H  0.62419169  0.53580893  0.97494038     0.14600
H2081       H  0.76250865  0.53484116  0.97906264     0.32700
H2082       H  0.62340271  0.03310416  0.58034383     0.35500
C2083       C  0.86892015  0.16096370  0.53307135     0.21100
C2084       C  0.88825845  0.18945849  0.53244461    -0.38800
C2085       C  0.87098445  0.21912938  0.53414954     0.20100
C2086       C  0.83707373  0.22034226  0.53657620     0.22700
C2087       C  0.81770788  0.19181893  0.53753668    -0.39300
C2088       C  0.83499979  0.16212001  0.53560495     0.21500
N2089       N  0.87944586  0.12977807  0.53144349    -0.32600
C2090       C  0.85199204  0.11100673  0.53265675    -0.10100
C2091       C  0.82382197  0.13020672  0.53563082    -0.28900
N2092       N  0.82665771  0.25160845  0.53732706    -0.45500
C2093       C  0.85411423  0.27033514  0.53492417    -0.04800
C2094       C  0.88227410  0.25098018  0.53345397    -0.22200
H2095       H  0.91476301  0.18859505  0.03040409     0.19600
H2096       H  0.79118777  0.19269268  0.53937985     0.18400
H2097       H  0.79859581  0.12188891  0.53737660     0.14700
H2098       H  0.90760095  0.25903228  0.53246235     0.14600
H2099       H  0.90380876  0.12183479  0.53064201     0.32700
H2100       H  0.80235858  0.25973755  0.53876041     0.35500
C2101       C  0.53380914  0.22191142  0.51300988     0.21100
C2102       C  0.53307722  0.19352861  0.49356294    -0.38800
C2103       C  0.53391452  0.16361591  0.51078998     0.20100
C2104       C  0.53555240  0.16216732  0.54476045     0.22700
C2105       C  0.53644413  0.19049850  0.56417562    -0.39300
C2106       C  0.53546854  0.22032627  0.54694441     0.21500
N2107       N  0.53310235  0.25332585  0.50271084    -0.32600
C2108       C  0.53395129  0.27174846  0.53041449    -0.10100
C2109       C  0.53585455  0.25201909  0.55836376    -0.28900
N2110       N  0.53586788  0.13088565  0.55526446    -0.45500
C2111       C  0.53397868  0.11226333  0.52784679    -0.04800
C2112       C  0.53319531  0.13174599  0.49954323    -0.22200
H2113       H  0.53165933  0.19467681  0.96708585     0.19600
H2114       H  0.03768115  0.18939736  0.59073855     0.18400
H2115       H  0.03705480  0.25964789  0.58367414     0.14700
H2116       H  0.53267749  0.12375203  0.97419566     0.14600
H2117       H  0.53301278  0.26160798  0.97837175     0.32700
H2118       H  0.03678109  0.12267354  0.57961410     0.35500
C2119       C  0.72356464  0.34592637  0.51462985     0.21100
C2120       C  0.69535546  0.34792493  0.49501971    -0.38800
C2121       C  0.66530713  0.34718975  0.51210318     0.20100
C2122       C  0.66359160  0.34410495  0.54598092     0.22700
C2123       C  0.69172617  0.34159298  0.56548301    -0.39300
C2124       C  0.72170217  0.34286927  0.54850621     0.21500
N2125       N  0.75502838  0.34780366  0.50466431    -0.36000
C2126       C  0.77316931  0.34659417  0.53250617    -0.10100
C2127       C  0.75329211  0.34287424  0.56023918    -0.28900
N2128       N  0.63230598  0.34497459  0.55641496    -0.45500
C2129       C  0.61387708  0.34913418  0.52911636    -0.04800
C2130       C  0.63355047  0.35004036  0.50087858    -0.22200
H2131       H  0.69671888  0.35077792  0.96856734     0.19600
H2132       H  0.69038218  0.33963961  0.59200905     0.18400
H2133       H  0.76093148  0.34134358  0.58565003     0.14700
H2134       H  0.62577561  0.35187993  0.97554991     0.14600
H2135       H  0.76351604  0.34922750  0.98042351     0.32700
H2136       H  0.62400810  0.34345216  0.58072964     0.35500
C2137       C  0.53413190  0.36893339  0.66032324     0.21100
C2138       C  0.53261465  0.38815879  0.68892673    -0.38800
C2139       C  0.53334736  0.37063926  0.71874663     0.20100
C2140       C  0.53572390  0.33670547  0.71988678     0.22700
C2141       C  0.53752848  0.31757012  0.69137688    -0.39300
C2142       C  0.53655285  0.33502156  0.66166463     0.21500
N2143       N  0.53335754  0.37939954  0.62892561    -0.32600
C2144       C  0.53483388  0.35183510  0.61025889    -0.10100
C2145       C  0.53738374  0.32382661  0.62987151    -0.28900
N2146       N  0.53585863  0.32589630  0.75107888    -0.45500
C2147       C  0.53307172  0.35301145  0.77009401    -0.04800
C2148       C  0.53196982  0.38149264  0.75079813    -0.22200
H2149       H  0.53066942  0.41469874  0.68803601     0.19600
H2150       H  0.03932995  0.29101917  0.69226271     0.18400
H2151       H  0.03921053  0.29858256  0.62210657     0.14700
H2152       H  0.53101427  0.40675651  0.75901220     0.14600
H2153       H  0.53279031  0.40378739  0.62082506     0.32700
H2154       H  0.03747533  0.30150923  0.75886984     0.35500
C2155       C  0.51441697  0.03180901  0.71859835     0.21100
C2156       C  0.99535245  0.03236482  0.68989840    -0.38800
C2157       C  0.51303884  0.03296004  0.66013438     0.20100
C2158       C  0.54702309  0.03310527  0.65912917     0.22700
C2159       C  0.56602718  0.03265247  0.68775063    -0.39300
C2160       C  0.54840941  0.03205685  0.71743457     0.21500
N2161       N  0.00368813  0.03162254  0.74994501    -0.32600
C2162       C  0.53111155  0.03171712  0.76872935    -0.10100
C2163       C  0.55941230  0.03222072  0.74935175    -0.28900
N2164       N  0.55799717  0.03369443  0.62795261    -0.45500
C2165       C  0.53091393  0.03342757  0.60882383    -0.04800
C2166       C  0.00233441  0.03345577  0.62801612    -0.22200
H2167       H  0.96877068  0.03232540  0.69068225     0.19600
H2168       H  0.59260405  0.03290191  0.68696103     0.18400
H2169       H  0.58464482  0.03272425  0.75758267     0.14700
H2170       H  0.97715777  0.03405792  0.61964473     0.14600
H2171       H  0.97929801  0.03248087  0.75799504     0.32700
H2172       H  0.58245477  0.03372929  0.62019816     0.35500
C2173       C  0.53127349  0.16210353  0.86468423     0.21100
C2174       C  0.53237811  0.19052965  0.88402259    -0.38800
C2175       C  0.53129875  0.22040534  0.86682602     0.20100
C2176       C  0.52933148  0.22186149  0.83289887     0.22700
C2177       C  0.52837900  0.19340870  0.81346459    -0.39300
C2178       C  0.52951089  0.16348448  0.83071755     0.21500
N2179       N  0.53230247  0.13080125  0.87521039    -0.32600
C2180       C  0.53104777  0.11210010  0.84776302    -0.10100
C2181       C  0.52966678  0.13153361  0.81949232    -0.28900
N2182       N  0.52913904  0.25324432  0.82250728    -0.45500
C2183       C  0.53068176  0.27185507  0.85001550    -0.04800
C2184       C  0.53244581  0.25224655  0.87813972    -0.22200
H2185       H  0.03414763  0.18942423  0.91047756     0.19600
H2186       H  0.52712724  0.19449601  0.78690334     0.18400
H2187       H  0.52873552  0.12332980  0.79421994     0.14700
H2188       H  0.03503107  0.26016512  0.90337583     0.14600
H2189       H  0.03463941  0.12271041  0.89949129     0.32700
H2190       H  0.52782960  0.26145356  0.79824814     0.35500
C2191       C  0.85171347  0.01428313  0.66176537     0.21100
C2192       C  0.85203487  0.49505552  0.69047900    -0.38800
C2193       C  0.85056422  0.01245487  0.72016582     0.20100
C2194       C  0.84886650  0.04641634  0.72113790     0.22700
C2195       C  0.84839509  0.06567166  0.69244835    -0.39300
C2196       C  0.84986449  0.04825585  0.66278266     0.21500
N2197       N  0.85265956  0.50364844  0.63052516    -0.32600
C2198       C  0.85161201  0.03111035  0.61156393    -0.10100
C2199       C  0.84954382  0.05935971  0.63077581    -0.28900
N2200       N  0.84799138  0.05705362  0.75234015    -0.45500
C2201       C  0.84956588  0.02976164  0.77145662    -0.04800
C2202       C  0.85063279  0.50138204  0.75223148    -0.22200
H2203       H  0.85353427  0.46856027  0.68974764     0.19600
H2204       H  0.84698434  0.09224378  0.69317586     0.18400
H2205       H  0.84808031  0.08461592  0.62239428     0.14700
H2206       H  0.85096755  0.47605557  0.76049928     0.14600
H2207       H  0.85284001  0.47921543  0.62268848     0.32700
H2208       H  0.84699404  0.08144552  0.76011000     0.35500
C2209       C  0.66109604  0.01545275  0.84771688     0.21100
C2210       C  0.68946020  0.49596525  0.84827650    -0.38800
C2211       C  0.71928560  0.01311642  0.84958728     0.20100
C2212       C  0.72073916  0.04713457  0.84989270     0.22700
C2213       C  0.69237566  0.06667689  0.84914671    -0.39300
C2214       C  0.66252010  0.04947661  0.84810366     0.21500
N2215       N  0.62981363  0.50501611  0.84702369    -0.32600
C2216       C  0.61119828  0.03259895  0.84729227    -0.10100
C2217       C  0.63066287  0.06082244  0.84751385    -0.28900
N2218       N  0.75204167  0.05746704  0.85078944    -0.45500
C2219       C  0.77058018  0.02984983  0.85152653    -0.04800
C2220       C  0.75107890  0.50166262  0.85051323    -0.22200
H2221       H  0.68835812  0.46943026  0.84791693     0.19600
H2222       H  0.69347530  0.09327746  0.84944450     0.18400
H2223       H  0.62252957  0.08615780  0.84780396     0.14700
H2224       H  0.75906834  0.47629762  0.84967739     0.14600
H2225       H  0.62169389  0.48066851  0.84589415     0.32700
H2226       H  0.76035132  0.08179327  0.85096481     0.35500
C2227       C  0.85039330  0.33380369  0.72280334     0.21100
C2228       C  0.85135458  0.31470187  0.69416056    -0.38800
C2229       C  0.85110190  0.33233323  0.66446363     0.20100
C2230       C  0.84987612  0.36635272  0.66338262     0.22700
C2231       C  0.84837605  0.38537779  0.69204747    -0.39300
C2232       C  0.84891556  0.36779041  0.72174783     0.21500
N2233       N  0.85126631  0.32303394  0.75403081    -0.32600
C2234       C  0.85082318  0.35035550  0.77297088    -0.10100
C2235       C  0.84883091  0.37875269  0.75374863    -0.28900
N2236       N  0.85052742  0.37722694  0.63213783    -0.45500
C2237       C  0.85222699  0.34988785  0.61326460    -0.04800
C2238       C  0.85223574  0.32143451  0.63248021    -0.22200
H2239       H  0.85259053  0.28811702  0.69494089     0.19600
H2240       H  0.84734609  0.41189925  0.69128681     0.18400
H2241       H  0.84722640  0.40397051  0.76203331     0.14700
H2242       H  0.85315495  0.29620516  0.62410409     0.14600
H2243       H  0.85270208  0.29867124  0.76192251     0.32700
H2244       H  0.84908484  0.40163220  0.62416821     0.35500
C2245       C  0.66200567  0.36672474  0.85030530     0.21100
C2246       C  0.69062648  0.38583174  0.85179633    -0.38800
C2247       C  0.72022334  0.36834591  0.85120719     0.20100
C2248       C  0.72126191  0.33440391  0.84905510     0.22700
C2249       C  0.69261086  0.31524128  0.84747900    -0.39300
C2250       C  0.66296506  0.33276045  0.84830435     0.21500
N2251       N  0.63088480  0.37752582  0.85051486    -0.32600
C2252       C  0.61185160  0.35019784  0.84930517    -0.10100
C2253       C  0.63094185  0.32182943  0.84741297    -0.28900
N2254       N  0.75246685  0.32375115  0.84894780    -0.45500
C2255       C  0.77137379  0.35107293  0.85152864    -0.04800
C2256       C  0.75213629  0.37941176  0.85245241    -0.22200
H2257       H  0.68989510  0.41231692  0.85357564     0.19600
H2258       H  0.69334646  0.28868445  0.84586346     0.18400
H2259       H  0.62247699  0.29662530  0.84597080     0.14700
H2260       H  0.76030578  0.40473696  0.85313702     0.14600
H2261       H  0.62323904  0.40202594  0.85028861     0.32700
H2262       H  0.76043424  0.29937628  0.84764922     0.35500
C2263       C  0.84791606  0.16037068  0.86958815     0.21100
C2264       C  0.84978157  0.18879104  0.88906567    -0.38800
C2265       C  0.84857287  0.21879487  0.87187470     0.20100
C2266       C  0.84529353  0.22022445  0.83805314     0.22700
C2267       C  0.84307516  0.19191114  0.81869699    -0.39300
C2268       C  0.84467192  0.16203178  0.83577333     0.21500
N2269       N  0.84959424  0.12888092  0.87963199    -0.32600
C2270       C  0.84795196  0.11052901  0.85187500    -0.10100
C2271       C  0.84429189  0.13035723  0.82417880    -0.28900
N2272       N  0.84529324  0.25148569  0.82747848    -0.45500
C2273       C  0.84911175  0.27028526  0.85459051    -0.04800
C2274       C  0.85071566  0.25077705  0.88290054    -0.22200
H2275       H  0.85260392  0.18762888  0.91549758     0.19600
H2276       H  0.84080511  0.19306449  0.79221103     0.18400
H2277       H  0.84225859  0.12274451  0.79886351     0.14700
H2278       H  0.85261260  0.25879736  0.90815376     0.14600
H2279       H  0.85103740  0.12051147  0.90388282     0.32700
H2280       H  0.84330446  0.25945337  0.80320020     0.35500
C2281       C  0.86373234  0.86289110  0.36518442     0.46200
H2282       H  0.87944326  0.87849873  0.38028818    -0.02800
C2283       C  0.82758623  0.82645242  0.32931438     0.46300
H2284       H  0.81178924  0.81080217  0.31359436    -0.02800
C2285       C  0.82714088  0.86958571  0.37116734    -0.16500
C2286       C  0.87056039  0.86870312  0.32856680    -0.16300
C2287       C  0.86931848  0.82633951  0.37243153    -0.16600
C2288       C  0.80759654  0.85018896  0.35182756    -0.16600
C2289       C  0.85104677  0.84937259  0.30920524    -0.16200
C2290       C  0.84997289  0.80660077  0.35323488    -0.16500
C2291       C  0.86288125  0.51818811  0.36406665     0.46200
H2292       H  0.87888065  0.00309681  0.37945426    -0.02800
C2293       C  0.82637732  0.55395116  0.32774825     0.46300
H2294       H  0.81032706  0.56933514  0.31195728    -0.02800
C2295       C  0.86900321  0.51158737  0.32747122    -0.16500
C2296       C  0.82642436  0.51130923  0.37055785    -0.16300
C2297       C  0.86856984  0.55494646  0.37035266    -0.16600
C2298       C  0.84963363  0.53083891  0.30780203    -0.16600
C2299       C  0.80671564  0.53045885  0.35107755    -0.16200
C2300       C  0.84895240  0.57424269  0.35098740    -0.16500
C2301       C  0.51905814  0.51972927  0.36151569     0.46200
H2302       H  0.00393446  0.00415828  0.37754575    -0.02800
C2303       C  0.55484988  0.55594131  0.32436158     0.46300
H2304       H  0.57042441  0.57172769  0.30824288    -0.02800
C2305       C  0.55574793  0.51314196  0.36691176    -0.16500
C2306       C  0.51180942  0.51377802  0.32508948    -0.16300
C2307       C  0.51287655  0.55633687  0.36775643    -0.16600
C2308       C  0.57501267  0.53262955  0.34710383    -0.16600
C2309       C  0.53120493  0.53287226  0.30499048    -0.16200
C2310       C  0.53213243  0.57588832  0.34798667    -0.16500
C2311       C  0.51979097  0.86440003  0.36278477     0.46200
H2312       H  0.00435900  0.87974146  0.37858708    -0.02800
C2313       C  0.55521432  0.82769909  0.32611859     0.46300
H2314       H  0.57067902  0.81174810  0.31023643    -0.02800
C2315       C  0.55649226  0.87024522  0.36870240    -0.16500
C2316       C  0.51276885  0.82788611  0.36895956    -0.16300
C2317       C  0.51375449  0.87122724  0.32627661    -0.16600
C2318       C  0.57564173  0.85053061  0.34911863    -0.16600
C2319       C  0.53181594  0.80809732  0.34949873    -0.16200
C2320       C  0.53270544  0.85165435  0.30640664    -0.16500
C2321       C  0.52166320  0.86420952  0.01765877     0.46200
H2322       H  0.00588543  0.87955987  0.50231903    -0.02800
C2323       C  0.55747579  0.82774479  0.05390372     0.46300
H2324       H  0.57310428  0.81176975  0.06952733    -0.02800
C2325       C  0.55828184  0.87022045  0.01095667    -0.16500
C2326       C  0.51560570  0.87086824  0.05431940    -0.16300
C2327       C  0.51525796  0.82763508  0.01133792    -0.16600
C2328       C  0.57766919  0.85038114  0.03016501    -0.16600
C2329       C  0.53488370  0.85141145  0.07390652    -0.16200
C2330       C  0.53423732  0.80797885  0.03091946    -0.16500
C2331       C  0.86524540  0.86275513  0.02077613     0.46200
H2332       H  0.88038427  0.87837949  0.50485502    -0.02800
C2333       C  0.82949078  0.82602110  0.05733864     0.46300
H2334       H  0.81401380  0.80997199  0.07327829    -0.02800
C2335       C  0.87112067  0.86963576  0.05730045    -0.16500
C2336       C  0.82859120  0.86805796  0.01412748    -0.16300
C2337       C  0.87268543  0.82626552  0.01530978    -0.16600
C2338       C  0.85177494  0.85006940  0.07704757    -0.16600
C2339       C  0.80932363  0.84807976  0.03347245    -0.16200
C2340       C  0.85340830  0.80648145  0.03480844    -0.16500
C2341       C  0.52032741  0.52005916  0.01624181     0.46200
H2342       H  0.00478566  0.00440744  0.50099318    -0.02800
C2343       C  0.55625433  0.55621720  0.05265150     0.46300
H2344       H  0.57185965  0.57204148  0.06839879    -0.02800
C2345       C  0.55703056  0.51374822  0.01022347    -0.16500
C2346       C  0.51452820  0.55659547  0.00931087    -0.16300
C2347       C  0.51324469  0.51410014  0.05282855    -0.16600
C2348       C  0.57644577  0.53312216  0.02962528    -0.16600
C2349       C  0.53374962  0.57611761  0.02880251    -0.16200
C2350       C  0.53239965  0.53343487  0.07249997    -0.16500
C2351       C  0.86469710  0.51891875  0.01902120     0.46200
H2352       H  0.88022344  0.00369126  0.50320074    -0.02800
C2353       C  0.82840271  0.55487559  0.05548865     0.46300
H2354       H  0.81261760  0.57052376  0.07135996    -0.02800
C2355       C  0.82807113  0.51308698  0.01250773    -0.16500
C2356       C  0.87035981  0.51176047  0.05558168    -0.16300
C2357       C  0.87166264  0.55556609  0.01336560    -0.16600
C2358       C  0.80852356  0.53255165  0.03177949    -0.16600
C2359       C  0.85103892  0.53114847  0.07529441    -0.16200
C2360       C  0.85200966  0.57489211  0.03277892    -0.16500
O2361       O  0.90682628  0.97147012  0.03828554    -0.72200
O2362       O  0.97819169  0.91063993  0.03747346    -0.73200
O2363       O  0.91191074  0.90556043  0.03947873    -0.61800
O2364       O  0.97296249  0.97698035  0.03639583    -0.70200
O2365       O  0.98043113  0.97728922  0.08987386    -0.69800
O2366       O  0.90584298  0.90548823  0.09316884    -0.61000
O2367       O  0.97902631  0.90411219  0.09108922    -0.73500
O2368       O  0.90741883  0.97872829  0.09178796    -0.72300
Cu2369     Cu  0.94246288  0.94110655  0.03687105     1.04600
Cu2370     Cu  0.94325893  0.94143261  0.09418982     1.04300
C2371       C  0.89577861  0.98613336  0.06336693     0.94000
C2372       C  0.99000675  0.89636721  0.06241866     0.93100
C2373       C  0.89746222  0.89448371  0.06482033     0.85300
C2374       C  0.98768526  0.98853785  0.06111086     0.91600
O2375       O  0.91206462  0.90455276  0.34480720    -0.72200
O2376       O  0.97075117  0.97816141  0.34298134    -0.73200
O2377       O  0.90488983  0.97056877  0.34432604    -0.61800
O2378       O  0.97814666  0.91228199  0.34351914    -0.70200
O2379       O  0.97642706  0.90371174  0.29023987    -0.69800
O2380       O  0.90573937  0.97854747  0.29088228    -0.61000
O2381       O  0.97857458  0.97662790  0.28948718    -0.73500
O2382       O  0.90381876  0.90518817  0.29147234    -0.72300
Cu2383     Cu  0.94148581  0.94138597  0.34496913     1.04600
Cu2384     Cu  0.94107920  0.94101306  0.28777316     1.04300
C2385       C  0.89673387  0.89364670  0.32014808     0.94000
C2386       C  0.98580087  0.98866152  0.31773763     0.93100
C2387       C  0.89408460  0.98568817  0.31943372     0.85300
C2388       C  0.98862191  0.89701503  0.31855275     0.91600
O2389       O  0.54035844  0.97539909  0.47192403    -0.72200
O2390       O  0.53994243  0.90842583  0.40750761    -0.73200
O2391       O  0.54102774  0.90937012  0.47331052    -0.61800
O2392       O  0.53942702  0.97440640  0.40587066    -0.70200
O2393       O  0.59305914  0.97910447  0.40229479    -0.69800
O2394       O  0.59472986  0.90583293  0.47595564    -0.61000
O2395       O  0.59357588  0.90538798  0.40298985    -0.73500
O2396       O  0.59403641  0.97880102  0.47566474    -0.72300
Cu2397     Cu  0.53923210  0.94191097  0.43971504     1.04600
Cu2398     Cu  0.59659459  0.94234317  0.43913941     1.04300
C2399       C  0.56532182  0.98830001  0.48488144     0.94000
C2400       C  0.56487138  0.89564935  0.39415755     0.93100
C2401       C  0.56619289  0.89621200  0.48571090     0.85300
C2402       C  0.56424796  0.98783295  0.39270866     0.91600
O2403       O  0.91290017  0.53913533  0.47719018    -0.72200
O2404       O  0.97090313  0.53948273  0.40291162    -0.73200
O2405       O  0.97874997  0.53963992  0.46850828    -0.61800
O2406       O  0.90487206  0.53879057  0.41122174    -0.70200
O2407       O  0.90572177  0.59207533  0.40220556    -0.69800
O2408       O  0.97700933  0.59295097  0.47682460    -0.61000
O2409       O  0.97880441  0.59293571  0.40364392    -0.73500
O2410       O  0.90384227  0.59235797  0.47547831    -0.72300
Cu2411     Cu  0.94183484  0.53826196  0.43993557     1.04600
Cu2412     Cu  0.94130848  0.59538959  0.43950210     1.04300
C2413       C  0.89737706  0.56386809  0.48783430     0.94000
C2414       C  0.98627234  0.56441850  0.39224476     0.93100
C2415       C  0.98928447  0.56458740  0.48361393     0.85300
C2416       C  0.89389161  0.56344878  0.39580586     0.91600
O2417       O  0.84399797  0.97361041  0.40951706    -0.72200
O2418       O  0.84507497  0.90690179  0.47534636    -0.73200
O2419       O  0.84431814  0.90787022  0.40937981    -0.61800
O2420       O  0.84478548  0.97333314  0.47544358    -0.70200
O2421       O  0.79107599  0.97718845  0.47946591    -0.69800
O2422       O  0.79063104  0.90330335  0.40750585    -0.61000
O2423       O  0.79146015  0.90387990  0.48062678    -0.73500
O2424       O  0.79022245  0.97651478  0.40655580    -0.72300
Cu2425     Cu  0.84554791  0.94042104  0.44248350     1.04600
Cu2426     Cu  0.78814121  0.94017827  0.44363111     1.04300
C2427       C  0.81874087  0.98610656  0.39663346     0.94000
C2428       C  0.82022701  0.89393888  0.48895489     0.93100
C2429       C  0.81919787  0.89464875  0.39704913     0.85300
C2430       C  0.81984383  0.98681968  0.48811413     0.91600
O2431       O  0.90468754  0.84348367  0.41370062    -0.72200
O2432       O  0.97957375  0.84436494  0.47011720    -0.73200
O2433       O  0.97077049  0.84460751  0.40424571    -0.61800
O2434       O  0.91393164  0.84349219  0.47952187    -0.70200
O2435       O  0.90513411  0.79021165  0.47760877    -0.69800
O2436       O  0.97961699  0.79132536  0.40589110    -0.61000
O2437       O  0.97802751  0.79106249  0.47913205    -0.73500
O2438       O  0.90697953  0.79028558  0.40468839    -0.72300
Cu2439     Cu  0.94220149  0.84504542  0.44187548     1.04600
Cu2440     Cu  0.94248758  0.78793723  0.44183660     1.04300
C2441       C  0.89443135  0.81855848  0.39826210     0.94000
C2442       C  0.99011140  0.81955380  0.48563044     0.93100
C2443       C  0.98641265  0.81983905  0.39382706     0.85300
C2444       C  0.89854748  0.81850530  0.49001956     0.91600
C2445       C  0.72257949  0.53486598  0.01360487     0.21100
C2446       C  0.69418892  0.53561750  0.49410025    -0.38800
C2447       C  0.66420013  0.53529281  0.01138859     0.20100
C2448       C  0.66273286  0.53463275  0.04540082     0.22700
C2449       C  0.69103554  0.53428357  0.06482637    -0.39300
C2450       C  0.72091408  0.53437680  0.04761990     0.21500
N2451       N  0.75403558  0.53404354  0.00334922    -0.32600
C2452       C  0.77232610  0.53284675  0.03111371    -0.10100
C2453       C  0.75258437  0.53347519  0.05913875    -0.28900
N2454       N  0.63146306  0.53388945  0.05596508    -0.45500
C2455       C  0.61273073  0.53358821  0.02859447    -0.04800
C2456       C  0.63225090  0.53491603  0.00023965    -0.22200
H2457       H  0.69535170  0.03586686  0.46749754     0.19600
H2458       H  0.68986942  0.53359794  0.09141769     0.18400
H2459       H  0.76041209  0.53288174  0.08452660     0.14700
H2460       H  0.62419184  0.03580877  0.47494032     0.14600
H2461       H  0.76250880  0.03484098  0.47906281     0.32700
H2462       H  0.62340272  0.53310423  0.08034430     0.35500
C2463       C  0.86891998  0.66096383  0.03307124     0.21100
C2464       C  0.88825828  0.68945859  0.03244457    -0.38800
C2465       C  0.87098433  0.71912942  0.03414944     0.20100
C2466       C  0.83707344  0.72034230  0.03657613     0.22700
C2467       C  0.81770748  0.69181892  0.03753665    -0.39300
C2468       C  0.83499958  0.66212012  0.03560499     0.21500
N2469       N  0.87944569  0.62977826  0.03144342    -0.32600
C2470       C  0.85199204  0.61100679  0.03265660    -0.10100
C2471       C  0.82382201  0.63020682  0.03563071    -0.28900
N2472       N  0.82665768  0.75160848  0.03732699    -0.45500
C2473       C  0.85411418  0.77033517  0.03492412    -0.04800
C2474       C  0.88227408  0.75098020  0.03345386    -0.22200
H2475       H  0.91476300  0.68859510  0.53040401     0.19600
H2476       H  0.79118737  0.69269242  0.03938022     0.18400
H2477       H  0.79859584  0.62188917  0.03737643     0.14700
H2478       H  0.90760094  0.75903225  0.03246241     0.14600
H2479       H  0.90380897  0.62183512  0.03064195     0.32700
H2480       H  0.80235820  0.75973767  0.03876049     0.35500
C2481       C  0.53380925  0.72191156  0.01301004     0.21100
C2482       C  0.53307742  0.69352860  0.99356316    -0.38800
C2483       C  0.53391447  0.66361594  0.01079003     0.20100
C2484       C  0.53555210  0.66216740  0.04476051     0.22700
C2485       C  0.53644369  0.69049859  0.06417572    -0.39300
C2486       C  0.53546826  0.72032638  0.04694478     0.21500
N2487       N  0.53310250  0.75332581  0.00271157    -0.32600
C2488       C  0.53395120  0.77174855  0.03041482    -0.10100
C2489       C  0.53585415  0.75201918  0.05836435    -0.28900
N2490       N  0.53586753  0.63088579  0.05526446    -0.45500
C2491       C  0.53397836  0.61226339  0.02784687    -0.04800
C2492       C  0.53319536  0.63174599  0.99954325    -0.22200
H2493       H  0.53165869  0.69467706  0.46708567     0.19600
H2494       H  0.03768052  0.68939737  0.09073871     0.18400
H2495       H  0.03705381  0.75964786  0.08367479     0.14700
H2496       H  0.53267750  0.62375204  0.47419556     0.14600
H2497       H  0.53301234  0.76160755  0.47837348     0.32700
H2498       H  0.03678030  0.62267355  0.07961426     0.35500
C2499       C  0.72356468  0.84592655  0.01462982     0.21100
C2500       C  0.69535549  0.84792502  0.99501938    -0.38800
C2501       C  0.66530716  0.84718980  0.01210261     0.20100
C2502       C  0.66359160  0.84410506  0.04598073     0.22700
C2503       C  0.69172620  0.84159314  0.06548292    -0.39300
C2504       C  0.72170218  0.84286933  0.04850652     0.21500
N2505       N  0.75502823  0.84780371  0.00466504    -0.36000
C2506       C  0.77316931  0.84659428  0.03250653    -0.10100
C2507       C  0.75329212  0.84287433  0.06023983    -0.28900
N2508       N  0.63230623  0.84497472  0.05641415    -0.45500
C2509       C  0.61387709  0.84913414  0.02911607    -0.04800
C2510       C  0.63355043  0.85004039  0.00087798    -0.22200
H2511       H  0.69671874  0.85077798  0.46856777     0.19600
H2512       H  0.69038209  0.83963969  0.09200907     0.18400
H2513       H  0.76093148  0.84134362  0.08565068     0.14700
H2514       H  0.62577565  0.85187953  0.47555051     0.14600
H2515       H  0.76351556  0.84922698  0.48042439     0.32700
H2516       H  0.62400764  0.84345221  0.08073102     0.35500
C2517       C  0.53413192  0.86893341  0.16032320     0.21100
C2518       C  0.53261449  0.88815883  0.18892671    -0.38800
C2519       C  0.53334731  0.87063910  0.21874656     0.20100
C2520       C  0.53572400  0.83670535  0.21988669     0.22700
C2521       C  0.53752874  0.81757007  0.19137674    -0.39300
C2522       C  0.53655303  0.83502158  0.16166451     0.21500
N2523       N  0.53335751  0.87939968  0.12892545    -0.32600
C2524       C  0.53483401  0.85183505  0.11025881    -0.10100
C2525       C  0.53738401  0.82382662  0.12987134    -0.28900
N2526       N  0.53585881  0.82589605  0.25107887    -0.45500
C2527       C  0.53307180  0.85301123  0.27009397    -0.04800
C2528       C  0.53196967  0.88149228  0.25079809    -0.22200
H2529       H  0.53066895  0.91469871  0.18803612     0.19600
H2530       H  0.03933032  0.79101920  0.19226243     0.18400
H2531       H  0.03921039  0.79858264  0.12210622     0.14700
H2532       H  0.53101438  0.90675609  0.25901235     0.14600
H2533       H  0.53279037  0.90378673  0.12082496     0.32700
H2534       H  0.03747525  0.80150926  0.25886990     0.35500
C2535       C  0.51441678  0.53180900  0.21859828     0.21100
C2536       C  0.99535252  0.53236479  0.18989838    -0.38800
C2537       C  0.51303875  0.53296002  0.16013441     0.20100
C2538       C  0.54702312  0.53310535  0.15912918     0.22700
C2539       C  0.56602723  0.53265262  0.18775058    -0.39300
C2540       C  0.54840933  0.53205695  0.21743444     0.21500
N2541       N  0.00368811  0.53162252  0.24994500    -0.32600
C2542       C  0.53111152  0.53171700  0.26872933    -0.10100
C2543       C  0.55941220  0.53222070  0.24935159    -0.28900
N2544       N  0.55799725  0.53369446  0.12795263    -0.45500
C2545       C  0.53091400  0.53342760  0.10882388    -0.04800
C2546       C  0.00233449  0.53345577  0.12801618    -0.22200
H2547       H  0.96877075  0.53232565  0.19068226     0.19600
H2548       H  0.59260414  0.53290203  0.18696095     0.18400
H2549       H  0.58464477  0.53272436  0.25758233     0.14700
H2550       H  0.97715780  0.53405809  0.11964494     0.14600
H2551       H  0.97929789  0.53248049  0.25799503     0.32700
H2552       H  0.58245492  0.53372921  0.12019820     0.35500
C2553       C  0.53127352  0.66210338  0.36468440     0.21100
C2554       C  0.53237813  0.69052939  0.38402301    -0.38800
C2555       C  0.53129870  0.72040512  0.36682624     0.20100
C2556       C  0.52933127  0.72186140  0.33289897     0.22700
C2557       C  0.52837880  0.69340849  0.31346491    -0.39300
C2558       C  0.52951078  0.66348426  0.33071778     0.21500
N2559       N  0.53230265  0.63080078  0.37521098    -0.32600
C2560       C  0.53104778  0.61209994  0.34776288    -0.10100
C2561       C  0.52966673  0.63153342  0.31949229    -0.28900
N2562       N  0.52913889  0.75324406  0.32250784    -0.45500
C2563       C  0.53068166  0.77185499  0.35001540    -0.04800
C2564       C  0.53244576  0.75224639  0.37813963    -0.22200
H2565       H  0.03414760  0.68942415  0.41047743     0.19600
H2566       H  0.52712689  0.69449585  0.28690355     0.18400
H2567       H  0.52873486  0.62332978  0.29421982     0.14700
H2568       H  0.03503058  0.76016509  0.40337566     0.14600
H2569       H  0.03463931  0.62271066  0.39949008     0.32700
H2570       H  0.52782927  0.76145415  0.29824654     0.35500
C2571       C  0.85171373  0.51428285  0.16176545     0.21100
C2572       C  0.85203505  0.99505568  0.19047916    -0.38800
C2573       C  0.85056440  0.51245488  0.22016575     0.20100
C2574       C  0.84886681  0.54641634  0.22113787     0.22700
C2575       C  0.84839540  0.56567159  0.19244839    -0.39300
C2576       C  0.84986471  0.54825543  0.16278268     0.21500
N2577       N  0.85265966  0.00364855  0.13052520    -0.32600
C2578       C  0.85161207  0.53111021  0.11156389    -0.10100
C2579       C  0.84954400  0.55935926  0.13077583    -0.28900
N2580       N  0.84799165  0.55705389  0.25234024    -0.45500
C2581       C  0.84956598  0.52976180  0.27145663    -0.04800
C2582       C  0.85063293  0.00138222  0.25223163    -0.22200
H2583       H  0.85353431  0.96856039  0.18974794     0.19600
H2584       H  0.84698472  0.59224372  0.19317605     0.18400
H2585       H  0.84808091  0.58461560  0.12239447     0.14700
H2586       H  0.85096783  0.97605570  0.26049934     0.14600
H2587       H  0.85284009  0.97921530  0.12268832     0.32700
H2588       H  0.84699439  0.58144506  0.26011007     0.35500
C2589       C  0.66109611  0.51545268  0.34771688     0.21100
C2590       C  0.68946028  0.99596532  0.34827671    -0.38800
C2591       C  0.71928563  0.51311657  0.34958733     0.20100
C2592       C  0.72073916  0.54713456  0.34989257     0.22700
C2593       C  0.69237567  0.56667679  0.34914654    -0.39300
C2594       C  0.66252005  0.54947636  0.34810361     0.21500
N2595       N  0.62981386  0.00501683  0.34702385    -0.32600
C2596       C  0.61119831  0.53259889  0.34729224    -0.10100
C2597       C  0.63066288  0.56082230  0.34751371    -0.28900
N2598       N  0.75204173  0.55746719  0.35078934    -0.45500
C2599       C  0.77058022  0.52984994  0.35152653    -0.04800
C2600       C  0.75107898  0.00166239  0.35051340    -0.22200
H2601       H  0.68835795  0.96943022  0.34791716     0.19600
H2602       H  0.69347540  0.59327733  0.34944422     0.18400
H2603       H  0.62252993  0.58615781  0.34780365     0.14700
H2604       H  0.75906829  0.97629735  0.34967727     0.14600
H2605       H  0.62169319  0.98066693  0.34589431     0.32700
H2606       H  0.76035120  0.58179299  0.35096457     0.35500
C2607       C  0.85039317  0.83380378  0.22280343     0.21100
C2608       C  0.85135431  0.81470199  0.19416070    -0.38800
C2609       C  0.85110176  0.83233350  0.16446376     0.20100
C2610       C  0.84987604  0.86635290  0.16338270     0.22700
C2611       C  0.84837609  0.88537795  0.19204758    -0.39300
C2612       C  0.84891549  0.86779048  0.22174792     0.21500
N2613       N  0.85126614  0.82303400  0.25403087    -0.32600
C2614       C  0.85082311  0.85035554  0.27297091    -0.10100
C2615       C  0.84883097  0.87875276  0.25374870    -0.28900
N2616       N  0.85052746  0.87722728  0.13213776    -0.45500
C2617       C  0.85222690  0.84988807  0.11326462    -0.04800
C2618       C  0.85223556  0.82143495  0.13248032    -0.22200
H2619       H  0.85259006  0.78811713  0.19494128     0.19600
H2620       H  0.84734638  0.91189938  0.19128719     0.18400
H2621       H  0.84722665  0.90397059  0.26203339     0.14700
H2622       H  0.85315456  0.79620562  0.12410417     0.14600
H2623       H  0.85270164  0.79867124  0.26192265     0.32700
H2624       H  0.84908510  0.90163181  0.12416816     0.35500
C2625       C  0.66200568  0.86672495  0.35030524     0.21100
C2626       C  0.69062646  0.88583205  0.35179637    -0.38800
C2627       C  0.72022316  0.86834591  0.35120722     0.20100
C2628       C  0.72126180  0.83440387  0.34905516     0.22700
C2629       C  0.69261078  0.81524130  0.34747890    -0.39300
C2630       C  0.66296507  0.83276053  0.34830421     0.21500
N2631       N  0.63088486  0.87752573  0.35051479    -0.32600
C2632       C  0.61185160  0.85019788  0.34930511    -0.10100
C2633       C  0.63094187  0.82182944  0.34741284    -0.28900
N2634       N  0.75246676  0.82375103  0.34894780    -0.45500
C2635       C  0.77137368  0.85107271  0.35152873    -0.04800
C2636       C  0.75213609  0.87941140  0.35245256    -0.22200
H2637       H  0.68989508  0.91231727  0.35357593     0.19600
H2638       H  0.69334621  0.78868448  0.34586303     0.18400
H2639       H  0.62247703  0.79662530  0.34597075     0.14700
H2640       H  0.76030552  0.90473661  0.35313727     0.14600
H2641       H  0.62323906  0.90202643  0.35028866     0.32700
H2642       H  0.76043413  0.79937611  0.34764916     0.35500
C2643       C  0.84791606  0.66037066  0.36958825     0.21100
C2644       C  0.84978152  0.68879101  0.38906578    -0.38800
C2645       C  0.84857291  0.71879477  0.37187471     0.20100
C2646       C  0.84529362  0.72022440  0.33805313     0.22700
C2647       C  0.84307530  0.69191108  0.31869706    -0.39300
C2648       C  0.84467200  0.66203177  0.33577337     0.21500
N2649       N  0.84959425  0.62888090  0.37963206    -0.32600
C2650       C  0.84795197  0.61052901  0.35187508    -0.10100
C2651       C  0.84429195  0.63035720  0.32417884    -0.28900
N2652       N  0.84529336  0.75148554  0.32747856    -0.45500
C2653       C  0.84911179  0.77028521  0.35459033    -0.04800
C2654       C  0.85071555  0.75077697  0.38290037    -0.22200
H2655       H  0.85260394  0.68762889  0.41549768     0.19600
H2656       H  0.84080565  0.69306437  0.29221102     0.18400
H2657       H  0.84225871  0.62274440  0.29886359     0.14700
H2658       H  0.85261247  0.75879738  0.40815356     0.14600
H2659       H  0.85103742  0.62051138  0.40388290     0.32700
H2660       H  0.84330490  0.75945333  0.30319950     0.35500
C2661       C  0.86373246  0.86289110  0.86518453     0.46200
H2662       H  0.87944334  0.87849878  0.88028832    -0.02800
C2663       C  0.82758629  0.82645235  0.82931438     0.46300
H2664       H  0.81178930  0.81080206  0.81359436    -0.02800
C2665       C  0.82714094  0.86958560  0.87116735    -0.16500
C2666       C  0.87056048  0.86870311  0.82856687    -0.16300
C2667       C  0.86931856  0.82633950  0.87243159    -0.16600
C2668       C  0.80759659  0.85018889  0.85182746    -0.16600
C2669       C  0.85104684  0.84937252  0.80920527    -0.16200
C2670       C  0.84997290  0.80660074  0.85323498    -0.16500
C2671       C  0.86288132  0.51818810  0.86406670     0.46200
H2672       H  0.87888067  0.00309675  0.87945430    -0.02800
C2673       C  0.82637731  0.55395113  0.82774821     0.46300
H2674       H  0.81032700  0.56933513  0.81195729    -0.02800
C2675       C  0.86900321  0.51158731  0.82747125    -0.16500
C2676       C  0.82642437  0.51130928  0.87055788    -0.16300
C2677       C  0.86856990  0.55494644  0.87035261    -0.16600
C2678       C  0.84963354  0.53083878  0.80780201    -0.16600
C2679       C  0.80671564  0.53045883  0.85107746    -0.16200
C2680       C  0.84895244  0.57424267  0.85098732    -0.16500
C2681       C  0.51905817  0.51972924  0.86151566     0.46200
H2682       H  0.00393441  0.00415827  0.87754575    -0.02800
C2683       C  0.55485003  0.55594136  0.82436151     0.46300
H2684       H  0.57042479  0.57172768  0.80824288    -0.02800
C2685       C  0.55574791  0.51314186  0.86691173    -0.16500
C2686       C  0.51180947  0.51377807  0.82508944    -0.16300
C2687       C  0.51287664  0.55633685  0.86775642    -0.16600
C2688       C  0.57501267  0.53262954  0.84710384    -0.16600
C2689       C  0.53120494  0.53287239  0.80499046    -0.16200
C2690       C  0.53213254  0.57588835  0.84798653    -0.16500
C2691       C  0.51979090  0.86440013  0.86278476     0.46200
H2692       H  0.00435891  0.87974159  0.87858697    -0.02800
C2693       C  0.55521414  0.82769927  0.82611873     0.46300
H2694       H  0.57067865  0.81174829  0.81023638    -0.02800
C2695       C  0.55649223  0.87024535  0.86870248    -0.16500
C2696       C  0.51276885  0.82788615  0.86895962    -0.16300
C2697       C  0.51375444  0.87122731  0.82627658    -0.16600
C2698       C  0.57564166  0.85053070  0.84911879    -0.16600
C2699       C  0.53181588  0.80809739  0.84949871    -0.16200
C2700       C  0.53270533  0.85165444  0.80640668    -0.16500
C2701       C  0.52166327  0.86420946  0.51765889     0.46200
H2702       H  0.00588548  0.87955989  0.00231901    -0.02800
C2703       C  0.55747578  0.82774478  0.55390368     0.46300
H2704       H  0.57310431  0.81176969  0.56952717    -0.02800
C2705       C  0.55828188  0.87022037  0.51095668    -0.16500
C2706       C  0.51560581  0.87086827  0.55431952    -0.16300
C2707       C  0.51525801  0.82763506  0.51133793    -0.16600
C2708       C  0.57766921  0.85038107  0.53016515    -0.16600
C2709       C  0.53488378  0.85141148  0.57390660    -0.16200
C2710       C  0.53423733  0.80797883  0.53091928    -0.16500
C2711       C  0.86524543  0.86275509  0.52077600     0.46200
H2712       H  0.88038420  0.87837955  0.00485520    -0.02800
C2713       C  0.82949062  0.82602105  0.55733874     0.46300
H2714       H  0.81401354  0.80997203  0.57327843    -0.02800
C2715       C  0.87112072  0.86963567  0.55730034    -0.16500
C2716       C  0.82859124  0.86805790  0.51412739    -0.16300
C2717       C  0.87268542  0.82626548  0.51530976    -0.16600
C2718       C  0.85177491  0.85006941  0.57704753    -0.16600
C2719       C  0.80932360  0.84807977  0.53347236    -0.16200
C2720       C  0.85340825  0.80648142  0.53480855    -0.16500
C2721       C  0.52032738  0.52005902  0.51624173     0.46200
H2722       H  0.00478565  0.00440741  0.00099319    -0.02800
C2723       C  0.55625433  0.55621712  0.55265145     0.46300
H2724       H  0.57185979  0.57204125  0.56839878    -0.02800
C2725       C  0.55703054  0.51374808  0.51022350    -0.16500
C2726       C  0.51452820  0.55659538  0.50931083    -0.16300
C2727       C  0.51324470  0.51410012  0.55282846    -0.16600
C2728       C  0.57644572  0.53312216  0.52962536    -0.16600
C2729       C  0.53374970  0.57611753  0.52880245    -0.16200
C2730       C  0.53239973  0.53343479  0.57249991    -0.16500
C2731       C  0.86469714  0.51891880  0.51902129     0.46200
H2732       H  0.88022340  0.00369119  0.00320058    -0.02800
C2733       C  0.82840266  0.55487563  0.55548875     0.46300
H2734       H  0.81261756  0.57052367  0.57136023    -0.02800
C2735       C  0.82807117  0.51308707  0.51250775    -0.16500
C2736       C  0.87035978  0.51176046  0.55558174    -0.16300
C2737       C  0.87166269  0.55556610  0.51336564    -0.16600
C2738       C  0.80852357  0.53255166  0.53177962    -0.16600
C2739       C  0.85103878  0.53114855  0.57529444    -0.16200
C2740       C  0.85200967  0.57489214  0.53277899    -0.16500
O2741       O  0.90682638  0.97147015  0.53828561    -0.72200
O2742       O  0.97819158  0.91063988  0.53747351    -0.73200
O2743       O  0.91191064  0.90556048  0.53947872    -0.61800
O2744       O  0.97296251  0.97698022  0.53639577    -0.70200
O2745       O  0.98043114  0.97728929  0.58987377    -0.69800
O2746       O  0.90584302  0.90548818  0.59316889    -0.61000
O2747       O  0.97902636  0.90411220  0.59108921    -0.73500
O2748       O  0.90741876  0.97872825  0.59178803    -0.72300
Cu2749     Cu  0.94246286  0.94110652  0.53687107     1.04600
Cu2750     Cu  0.94325894  0.94143261  0.59418982     1.04300
C2751       C  0.89577866  0.98613340  0.56336699     0.94000
C2752       C  0.99000671  0.89636716  0.56241866     0.93100
C2753       C  0.89746224  0.89448366  0.56482035     0.85300
C2754       C  0.98768532  0.98853780  0.56111075     0.91600
O2755       O  0.91206481  0.90455261  0.84480716    -0.72200
O2756       O  0.97075095  0.97816157  0.84298126    -0.73200
O2757       O  0.90488968  0.97056850  0.84432604    -0.61800
O2758       O  0.97814681  0.91228215  0.84351904    -0.70200
O2759       O  0.97642704  0.90371173  0.79023983    -0.69800
O2760       O  0.90573938  0.97854745  0.79088232    -0.61000
O2761       O  0.97857465  0.97662796  0.78948710    -0.73500
O2762       O  0.90381876  0.90518820  0.79147232    -0.72300
Cu2763     Cu  0.94148579  0.94138593  0.84496909     1.04600
Cu2764     Cu  0.94107921  0.94101306  0.78777312     1.04300
C2765       C  0.89673397  0.89364665  0.82014807     0.94000
C2766       C  0.98580083  0.98866158  0.81773759     0.93100
C2767       C  0.89408455  0.98568805  0.81943376     0.85300
C2768       C  0.98862201  0.89701512  0.81855268     0.91600
O2769       O  0.54035845  0.97539919  0.97192408    -0.72200
O2770       O  0.53994242  0.90842579  0.90750781    -0.73200
O2771       O  0.54102776  0.90937020  0.97331068    -0.61800
O2772       O  0.53942701  0.97440639  0.90587059    -0.70200
O2773       O  0.59305910  0.97910457  0.90229488    -0.69800
O2774       O  0.59472988  0.90583308  0.97595567    -0.61000
O2775       O  0.59357588  0.90538817  0.90298989    -0.73500
O2776       O  0.59403642  0.97880116  0.97566484    -0.72300
Cu2777     Cu  0.53923210  0.94191100  0.93971513     1.04600
Cu2778     Cu  0.59659457  0.94234328  0.93913945     1.04300
C2779       C  0.56532182  0.98830011  0.98488149     0.94000
C2780       C  0.56487138  0.89564938  0.89415772     0.93100
C2781       C  0.56619293  0.89621215  0.98571101     0.85300
C2782       C  0.56424793  0.98783297  0.89270865     0.91600
O2783       O  0.91289996  0.53913528  0.97719011    -0.72200
O2784       O  0.97090331  0.53948265  0.90291178    -0.73200
O2785       O  0.97874974  0.53963991  0.96850848    -0.61800
O2786       O  0.90487221  0.53879054  0.91122163    -0.70200
O2787       O  0.90572170  0.59207531  0.90220550    -0.69800
O2788       O  0.97700938  0.59295104  0.97682447    -0.61000
O2789       O  0.97880425  0.59293571  0.90364383    -0.73500
O2790       O  0.90384233  0.59235796  0.97547828    -0.72300
Cu2791     Cu  0.94183482  0.53826191  0.93993559     1.04600
Cu2792     Cu  0.94130845  0.59538961  0.93950203     1.04300
C2793       C  0.89737694  0.56386808  0.98783421     0.94000
C2794       C  0.98627238  0.56441848  0.89224484     0.93100
C2795       C  0.98928434  0.56458742  0.98361398     0.85300
C2796       C  0.89389163  0.56344875  0.89580580     0.91600
O2797       O  0.84399787  0.97361045  0.90951699    -0.72200
O2798       O  0.84507489  0.90690173  0.97534629    -0.73200
O2799       O  0.84431804  0.90787023  0.90937976    -0.61800
O2800       O  0.84478536  0.97333306  0.97544349    -0.70200
O2801       O  0.79107590  0.97718841  0.97946585    -0.69800
O2802       O  0.79063099  0.90330329  0.90750577    -0.61000
O2803       O  0.79146010  0.90387985  0.98062671    -0.73500
O2804       O  0.79022232  0.97651482  0.90655572    -0.72300
Cu2805     Cu  0.84554783  0.94042102  0.94248346     1.04600
Cu2806     Cu  0.78814116  0.94017825  0.94363105     1.04300
C2807       C  0.81874076  0.98610652  0.89663331     0.94000
C2808       C  0.82022696  0.89393891  0.98895493     0.93100
C2809       C  0.81919782  0.89464876  0.89704901     0.85300
C2810       C  0.81984375  0.98681961  0.98811407     0.91600
O2811       O  0.90468752  0.84348363  0.91370074    -0.72200
O2812       O  0.97957387  0.84436503  0.97011723    -0.73200
O2813       O  0.97077046  0.84460751  0.90424575    -0.61800
O2814       O  0.91393169  0.84349227  0.97952197    -0.70200
O2815       O  0.90513414  0.79021178  0.97760886    -0.69800
O2816       O  0.97961701  0.79132536  0.90589115    -0.61000
O2817       O  0.97802756  0.79106254  0.97913209    -0.73500
O2818       O  0.90697956  0.79028556  0.90468847    -0.72300
Cu2819     Cu  0.94220152  0.84504542  0.94187554     1.04600
Cu2820     Cu  0.94248760  0.78793726  0.94183667     1.04300
C2821       C  0.89443133  0.81855844  0.89826223     0.94000
C2822       C  0.99011146  0.81955386  0.98563050     0.93100
C2823       C  0.98641257  0.81983905  0.89382702     0.85300
C2824       C  0.89854752  0.81850541  0.99001964     0.91600
C2825       C  0.72257956  0.53486571  0.51360494     0.21100
C2826       C  0.69418889  0.53561769  0.99410017    -0.38800
C2827       C  0.66420015  0.53529266  0.51138890     0.20100
C2828       C  0.66273290  0.53463256  0.54540079     0.22700
C2829       C  0.69103550  0.53428337  0.56482626    -0.39300
C2830       C  0.72091418  0.53437668  0.54761992     0.21500
N2831       N  0.75403564  0.53404342  0.50334936    -0.32600
C2832       C  0.77232613  0.53284662  0.53111394    -0.10100
C2833       C  0.75258443  0.53347507  0.55913911    -0.28900
N2834       N  0.63146286  0.53388927  0.55596579    -0.45500
C2835       C  0.61273068  0.53358806  0.52859473    -0.04800
C2836       C  0.63225089  0.53491587  0.50024023    -0.22200
H2837       H  0.69535134  0.03586715  0.96749755     0.19600
H2838       H  0.68986940  0.53359774  0.59141746     0.18400
H2839       H  0.76041207  0.53288205  0.58452701     0.14700
H2840       H  0.62419166  0.03580838  0.97494038     0.14600
H2841       H  0.76250862  0.03484084  0.97906262     0.32700
H2842       H  0.62340328  0.53310454  0.58034287     0.35500
C2843       C  0.86892002  0.66096381  0.53307137     0.21100
C2844       C  0.88825830  0.68945857  0.53244463    -0.38800
C2845       C  0.87098433  0.71912940  0.53414945     0.20100
C2846       C  0.83707348  0.72034227  0.53657612     0.22700
C2847       C  0.81770751  0.69181890  0.53753658    -0.39300
C2848       C  0.83499960  0.66212009  0.53560495     0.21500
N2849       N  0.87944576  0.62977826  0.53144349    -0.32600
C2850       C  0.85199209  0.61100680  0.53265674    -0.10100
C2851       C  0.82382201  0.63020680  0.53563082    -0.28900
N2852       N  0.82665762  0.75160847  0.53732691    -0.45500
C2853       C  0.85411416  0.77033516  0.53492408    -0.04800
C2854       C  0.88227407  0.75098017  0.53345399    -0.22200
H2855       H  0.91476294  0.68859511  0.03040347     0.19600
H2856       H  0.79118740  0.69269241  0.53938003     0.18400
H2857       H  0.79859580  0.62188916  0.53737658     0.14700
H2858       H  0.90760097  0.75903214  0.53246258     0.14600
H2859       H  0.90380906  0.62183514  0.53064199     0.32700
H2860       H  0.80235833  0.75973755  0.53876013     0.35500
C2861       C  0.53380916  0.72191148  0.51300989     0.21100
C2862       C  0.53307726  0.69352872  0.49356292    -0.38800
C2863       C  0.53391455  0.66361598  0.51078994     0.20100
C2864       C  0.53555243  0.66216739  0.54476044     0.22700
C2865       C  0.53644416  0.69049857  0.56417563    -0.39300
C2866       C  0.53546855  0.72032632  0.54694442     0.21500
N2867       N  0.53310232  0.75332593  0.50271088    -0.32600
C2868       C  0.53395132  0.77174853  0.53041452    -0.10100
C2869       C  0.53585448  0.75201914  0.55836376    -0.28900
N2870       N  0.53586790  0.63088573  0.55526444    -0.45500
C2871       C  0.53397868  0.61226335  0.52784681    -0.04800
C2872       C  0.53319533  0.63174601  0.49954323    -0.22200
H2873       H  0.53165938  0.69467677  0.96708578     0.19600
H2874       H  0.03768128  0.68939736  0.59073861     0.18400
H2875       H  0.03705410  0.75964791  0.58367414     0.14700
H2876       H  0.53267742  0.62375199  0.97419559     0.14600
H2877       H  0.53301294  0.76160819  0.97837225     0.32700
H2878       H  0.03678047  0.62267341  0.57961374     0.35500
C2879       C  0.72356467  0.84592645  0.51462985     0.21100
C2880       C  0.69535547  0.84792497  0.49501971    -0.38800
C2881       C  0.66530715  0.84718975  0.51210319     0.20100
C2882       C  0.66359163  0.84410492  0.54598091     0.22700
C2883       C  0.69172620  0.84159300  0.56548300    -0.39300
C2884       C  0.72170220  0.84286934  0.54850620     0.21500
N2885       N  0.75502840  0.84780373  0.50466431    -0.36000
C2886       C  0.77316934  0.84659424  0.53250616    -0.10100
C2887       C  0.75329214  0.84287430  0.56023918    -0.28900
N2888       N  0.63230601  0.84497457  0.55641501    -0.45500
C2889       C  0.61387711  0.84913405  0.52911638    -0.04800
C2890       C  0.63355049  0.85004037  0.50087862    -0.22200
H2891       H  0.69671887  0.85077786  0.96856733     0.19600
H2892       H  0.69038223  0.83963988  0.59200904     0.18400
H2893       H  0.76093150  0.84134363  0.58565003     0.14700
H2894       H  0.62577553  0.85187947  0.97554991     0.14600
H2895       H  0.76351608  0.84922703  0.98042339     0.32700
H2896       H  0.62400817  0.84345172  0.58072955     0.35500
C2897       C  0.53413183  0.86893338  0.66032328     0.21100
C2898       C  0.53261446  0.88815876  0.68892677    -0.38800
C2899       C  0.53334730  0.87063904  0.71874655     0.20100
C2900       C  0.53572382  0.83670533  0.71988670     0.22700
C2901       C  0.53752849  0.81757001  0.69137682    -0.39300
C2902       C  0.53655278  0.83502153  0.66166461     0.21500
N2903       N  0.53335747  0.87939957  0.62892565    -0.32600
C2904       C  0.53483393  0.85183511  0.61025892    -0.10100
C2905       C  0.53738381  0.82382662  0.62987148    -0.28900
N2906       N  0.53585869  0.82589605  0.75107887    -0.45500
C2907       C  0.53307174  0.85301122  0.77009399    -0.04800
C2908       C  0.53196974  0.88149221  0.75079804    -0.22200
H2909       H  0.53066914  0.91469869  0.68803613     0.19600
H2910       H  0.03932997  0.79101919  0.69226266     0.18400
H2911       H  0.03921054  0.79858262  0.62210658     0.14700
H2912       H  0.53101421  0.90675607  0.75901211     0.14600
H2913       H  0.53279056  0.90378729  0.62082521     0.32700
H2914       H  0.03747535  0.80150958  0.75886972     0.35500
C2915       C  0.51441697  0.53180900  0.71859836     0.21100
C2916       C  0.99535275  0.53236486  0.68989844    -0.38800
C2917       C  0.51303887  0.53296001  0.66013440     0.20100
C2918       C  0.54702314  0.53310534  0.65912922     0.22700
C2919       C  0.56602724  0.53265259  0.68775070    -0.39300
C2920       C  0.54840943  0.53205694  0.71743459     0.21500
N2921       N  0.00368749  0.53162267  0.74994518    -0.32600
C2922       C  0.53111156  0.53171702  0.76872938    -0.10100
C2923       C  0.55941231  0.53222077  0.74935179    -0.28900
N2924       N  0.55799727  0.53369446  0.62795265    -0.45500
C2925       C  0.53091398  0.53342757  0.60882387    -0.04800
C2926       C  0.00233448  0.53345572  0.62801613    -0.22200
H2927       H  0.96877110  0.53232565  0.69068214     0.19600
H2928       H  0.59260412  0.53290203  0.68696128     0.18400
H2929       H  0.58464481  0.53272436  0.75758276     0.14700
H2930       H  0.97715783  0.53405821  0.61964473     0.14600
H2931       H  0.97929950  0.53248092  0.75799447     0.32700
H2932       H  0.58245471  0.53372920  0.62019832     0.35500
C2933       C  0.53127352  0.66210342  0.86468424     0.21100
C2934       C  0.53237817  0.69052954  0.88402261    -0.38800
C2935       C  0.53129868  0.72040532  0.86682604     0.20100
C2936       C  0.52933138  0.72186145  0.83289890     0.22700
C2937       C  0.52837880  0.69340860  0.81346465    -0.39300
C2938       C  0.52951077  0.66348437  0.83071763     0.21500
N2939       N  0.53230256  0.63080101  0.87521051    -0.32600
C2940       C  0.53104776  0.61210000  0.84776294    -0.10100
C2941       C  0.52966672  0.63153351  0.81949232    -0.28900
N2942       N  0.52913887  0.75324431  0.82250729    -0.45500
C2943       C  0.53068170  0.77185507  0.85001553    -0.04800
C2944       C  0.53244586  0.75224656  0.87813973    -0.22200
H2945       H  0.03414763  0.68942419  0.91047757     0.19600
H2946       H  0.52712651  0.69449575  0.78690341     0.18400
H2947       H  0.52873487  0.62332972  0.79421994     0.14700
H2948       H  0.03503106  0.76016508  0.90337590     0.14600
H2949       H  0.03463925  0.62271071  0.89949018     0.32700
H2950       H  0.52782891  0.76145346  0.79824828     0.35500
C2951       C  0.85171356  0.51428302  0.66176535     0.21100
C2952       C  0.85203490  0.99505569  0.69047906    -0.38800
C2953       C  0.85056416  0.51245485  0.72016577     0.20100
C2954       C  0.84886665  0.54641615  0.72113788     0.22700
C2955       C  0.84839526  0.56567130  0.69244840    -0.39300
C2956       C  0.84986453  0.54825555  0.66278265     0.21500
N2957       N  0.85265955  0.00364879  0.63052533    -0.32600
C2958       C  0.85161199  0.53111028  0.61156386    -0.10100
C2959       C  0.84954393  0.55935948  0.63077581    -0.28900
N2960       N  0.84799150  0.55705371  0.75234009    -0.45500
C2961       C  0.84956591  0.52976176  0.77145658    -0.04800
C2962       C  0.85063287  0.00138183  0.75223153    -0.22200
H2963       H  0.85353455  0.96856039  0.68974763     0.19600
H2964       H  0.84698445  0.59224341  0.69317615     0.18400
H2965       H  0.84808034  0.58461570  0.62239434     0.14700
H2966       H  0.85096816  0.97605533  0.76049926     0.14600
H2967       H  0.85283979  0.97921460  0.62268829     0.32700
H2968       H  0.84699452  0.58144546  0.76010979     0.35500
C2969       C  0.66109609  0.51545272  0.84771677     0.21100
C2970       C  0.68946015  0.99596528  0.84827656    -0.38800
C2971       C  0.71928563  0.51311664  0.84958728     0.20100
C2972       C  0.72073916  0.54713461  0.84989249     0.22700
C2973       C  0.69237565  0.56667685  0.84914659    -0.39300
C2974       C  0.66251999  0.54947642  0.84810368     0.21500
N2975       N  0.62981380  0.00501689  0.84702375    -0.32600
C2976       C  0.61119828  0.53259890  0.84729222    -0.10100
C2977       C  0.63066278  0.56082237  0.84751379    -0.28900
N2978       N  0.75204183  0.55746736  0.85078936    -0.45500
C2979       C  0.77058023  0.52984994  0.85152648    -0.04800
C2980       C  0.75107886  0.00166233  0.85051326    -0.22200
H2981       H  0.68835771  0.96943018  0.84791678     0.19600
H2982       H  0.69347528  0.59327736  0.84944454     0.18400
H2983       H  0.62252964  0.58615782  0.84780400     0.14700
H2984       H  0.75906818  0.97629730  0.84967723     0.14600
H2985       H  0.62169310  0.98066691  0.84589398     0.32700
H2986       H  0.76035131  0.58179255  0.85096432     0.35500
C2987       C  0.85039331  0.83380370  0.72280328     0.21100
C2988       C  0.85135449  0.81470200  0.69416051    -0.38800
C2989       C  0.85110184  0.83233376  0.66446367     0.20100
C2990       C  0.84987609  0.86635316  0.66338268     0.22700
C2991       C  0.84837614  0.88537833  0.69204746    -0.39300
C2992       C  0.84891568  0.86779045  0.72174775     0.21500
N2993       N  0.85126633  0.82303378  0.75403081    -0.32600
C2994       C  0.85082324  0.85035531  0.77297086    -0.10100
C2995       C  0.84883103  0.87875241  0.75374857    -0.28900
N2996       N  0.85052742  0.87722790  0.63213754    -0.45500
C2997       C  0.85222685  0.84988822  0.61326458    -0.04800
C2998       C  0.85223558  0.82143521  0.63248025    -0.22200
H2999       H  0.85259073  0.78811713  0.69494078     0.19600
H3000       H  0.84734685  0.91189970  0.69128711     0.18400
H3001       H  0.84722617  0.90397021  0.76203325     0.14700
H3002       H  0.85315438  0.79620582  0.62410413     0.14600
H3003       H  0.85270229  0.79867120  0.76192251     0.32700
H3004       H  0.84908524  0.90163084  0.62416848     0.35500
C3005       C  0.66200572  0.86672496  0.85030522     0.21100
C3006       C  0.69062652  0.88583209  0.85179628    -0.38800
C3007       C  0.72022324  0.86834598  0.85120718     0.20100
C3008       C  0.72126184  0.83440391  0.84905507     0.22700
C3009       C  0.69261080  0.81524134  0.84747893    -0.39300
C3010       C  0.66296509  0.83276054  0.84830427     0.21500
N3011       N  0.63088490  0.87752573  0.85051478    -0.32600
C3012       C  0.61185159  0.85019791  0.84930516    -0.10100
C3013       C  0.63094186  0.82182944  0.84741290    -0.28900
N3014       N  0.75246678  0.82375102  0.84894780    -0.45500
C3015       C  0.77137373  0.85107271  0.85152865    -0.04800
C3016       C  0.75213622  0.87941146  0.85245244    -0.22200
H3017       H  0.68989516  0.91231731  0.85357577     0.19600
H3018       H  0.69334622  0.78868448  0.84586358     0.18400
H3019       H  0.62247700  0.79662529  0.84597096     0.14700
H3020       H  0.76030581  0.90473663  0.85313703     0.14600
H3021       H  0.62323912  0.90202645  0.85028895     0.32700
H3022       H  0.76043412  0.79937611  0.84764918     0.35500
C3023       C  0.84791617  0.66037062  0.86958813     0.21100
C3024       C  0.84978161  0.68879094  0.88906568    -0.38800
C3025       C  0.84857296  0.71879476  0.87187472     0.20100
C3026       C  0.84529372  0.72022439  0.83805310     0.22700
C3027       C  0.84307540  0.69191107  0.81869696    -0.39300
C3028       C  0.84467206  0.66203174  0.83577326     0.21500
N3029       N  0.84959424  0.62888086  0.87963196    -0.32600
C3030       C  0.84795207  0.61052898  0.85187497    -0.10100
C3031       C  0.84429209  0.63035718  0.82417873    -0.28900
N3032       N  0.84529338  0.75148553  0.82747863    -0.45500
C3033       C  0.84911192  0.77028519  0.85459044    -0.04800
C3034       C  0.85071571  0.75077692  0.88290053    -0.22200
H3035       H  0.85260387  0.68762875  0.91549760     0.19600
H3036       H  0.84080560  0.69306440  0.79221093     0.18400
H3037       H  0.84225927  0.62274435  0.79886344     0.14700
H3038       H  0.85261308  0.75879708  0.90815375     0.14600
H3039       H  0.85103722  0.62051133  0.90388281     0.32700
H3040       H  0.84330476  0.75945335  0.80319952     0.35500
loop_ 
_geom_bond_atom_site_label_1 
_geom_bond_atom_site_label_2 
_geom_bond_distance 
_geom_bond_site_symmetry_2 
_ccdc_geom_bond_type 
C1            H2   1.093       .  S
C1            C7   1.531       .  S
C1            C6   1.531       .  S
C1            C5   1.533       .  S
C3            H4   1.111       .  S
C3            C9   1.559       .  S
C3            C8   1.559       .  S
C3           C10   1.561       .  S
C5            C8   1.372       .  D
C5          C149   1.502       .  S
C6            C9   1.371       .  D
C6          C105   1.507       .  S
C7           C10   1.372       .  D
C7          C161   1.503       .  S
C8          C355   1.475       .  S
C9          C334   1.474       .  S
C10         C373   1.478       .  S
C11         H772   1.093       .  S
C11          C17   1.534       .  S
C11          C16   1.531       .  S
C11          C15   1.532       .  S
H12         C771   1.093       .  S
C13          H14   1.111       .  S
C13          C19   1.561       .  S
C13          C18   1.561       .  S
C13          C20   1.559       .  S
C15          C18   1.371       .  D
C15         C867   1.503   1_545  S
C16          C19   1.372       .  D
C16         C907   1.503   1_545  S
C17          C20   1.370       .  D
C17         C136   1.506       .  S
C18         C301   1.479       .  S
C19         C319   1.471       .  S
C20         C370   1.476       .  S
C21        H2302   1.094       .  S
C21          C27   1.532       .  S
C21          C26   1.532       .  S
C21          C25   1.535       .  S
H22        C2301   1.094       .  S
C23          H24   1.111       .  S
C23          C29   1.561       .  S
C23          C28   1.560       .  S
C23          C30   1.560       .  S
C25          C28   1.370       .  D
C25         C882   1.509   1_545  S
C26          C29   1.371       .  D
C26        C2386   1.502   1_445  S
C27          C30   1.371       .  D
C27        C1654   1.505   1_455  S
C28         C316   1.473       .  S
C29         C262   1.476       .  S
C30         C280   1.473       .  S
C31        H1552   1.094       .  S
C31          C37   1.531       .  S
C31          C36   1.531       .  S
C31          C35   1.533       .  S
H32        C1551   1.094       .  S
C33          H34   1.111       .  S
C33          C39   1.558       .  S
C33          C38   1.562       .  S
C33          C40   1.561       .  S
C35          C38   1.373       .  D
C35         C120   1.505       .  S
C36          C39   1.369       .  D
C36        C1683   1.505   1_455  S
C37          C40   1.371       .  D
C37        C1628   1.500   1_455  S
C38         C352   1.474       .  S
C39         C283   1.474       .  S
C40         C247   1.477       .  S
C41        H1942   1.093       .  S
C41          C47   1.532       .  S
C41          C46   1.535       .  S
C41          C45   1.533       .  S
H42        C1941   1.093       .  S
C43          H44   1.111       .  S
C43          C49   1.560       .  S
C43          C48   1.561       .  S
C43          C50   1.558       .  S
C45          C48   1.374       .  D
C45         C501   1.504   1_554  S
C46          C49   1.371       .  D
C46        C1612   1.507   1_455  S
C47          C50   1.369       .  D
C47        C2062   1.504   1_454  S
C48         C229   1.476       .  S
C49         C244   1.478       .  S
C50         C208   1.473       .  S
C51         H432   1.093       .  S
C51          C57   1.531       .  S
C51          C56   1.534       .  S
C51          C55   1.532       .  S
H52         C431   1.093       .  S
C53          H54   1.111       .  S
C53          C59   1.557       .  S
C53          C58   1.560       .  S
C53          C60   1.554       .  S
C55          C58   1.373       .  D
C55          C93   1.506       .  S
C56          C59   1.371       .  D
C56         C528   1.506   1_554  S
C57          C60   1.370       .  D
C57         C544   1.502   1_554  S
C58         C337   1.473       .  S
C59         C226   1.474       .  S
C60         C193   1.470       .  S
C61        H2722   1.094       .  S
C61          C67   1.532       .  S
C61          C66   1.530       .  S
C61          C65   1.535       .  S
H62        C2721   1.094       .  S
C63          H64   1.111       .  S
C63          C69   1.563       .  S
C63          C68   1.560       .  S
C63          C70   1.561       .  S
C65          C68   1.370       .  D
C65        C1259   1.500   1_544  S
C66          C69   1.371       .  D
C66        C2035   1.505   1_454  S
C67          C70   1.370       .  D
C67        C2374   1.505   1_445  S
C68         C175   1.478       .  S
C69         C211   1.470       .  S
C70         C265   1.478       .  S
C71        H1212   1.094       .  S
C71          C77   1.532       .  S
C71          C76   1.533       .  S
C71          C75   1.534       .  S
H72        C1211   1.094       .  S
C73          H74   1.111       .  S
C73          C79   1.560       .  S
C73          C78   1.556       .  S
C73          C80   1.556       .  S
C75          C78   1.369       .  D
C75        C1290   1.499   1_544  S
C76          C79   1.372       .  D
C76         C851   1.504   1_545  S
C77          C80   1.371       .  D
C77         C513   1.507   1_554  S
C78         C172   1.474       .  S
C79         C298   1.475       .  S
C80         C190   1.468       .  S
O81         Cu89   1.907       .  S
O81          C91   1.264       .  A
O82         Cu89   1.912       .  S
O82          C92   1.265       .  A
O83         Cu89   1.908       .  S
O83          C93   1.265       .  A
O84         Cu89   1.914       .  S
O84          C94   1.265       .  A
O85         Cu90   2.106       .  S
O85          C94   1.287       .  A
O86         Cu90   2.110       .  S
O86          C93   1.286       .  A
O87         Cu90   2.108       .  S
O87          C92   1.287       .  A
O88         Cu90   2.108       .  S
O88          C91   1.287       .  A
Cu89        Cu90   2.331       .  S
C91         C836   1.504       .  S
C92        C1566   1.507       .  S
C94        C2347   1.505       .  S
O95        Cu103   1.916       .  S
O95         C105   1.265       .  A
O96        Cu103   1.912       .  S
O96         C106   1.265       .  A
O97        Cu103   1.906       .  S
O97         C107   1.264       .  A
O98        Cu103   1.907       .  S
O98         C108   1.264       .  A
O99        Cu104   2.095       .  S
O99         C108   1.285       .  A
O100       Cu104   2.103       .  S
O100        C107   1.286       .  A
O101       Cu104   2.104       .  S
O101        C106   1.286       .  A
O102       Cu104   2.106       .  S
O102        C105   1.286       .  A
Cu103      Cu104   2.326       .  S
C106       C2306   1.502       .  S
C107        C775   1.503       .  S
C108       C1557   1.500       .  S
O109       Cu117   1.893       .  S
O109        C119   1.262       .  A
O110       Cu117   1.893       .  S
O110        C120   1.262       .  A
O111       Cu117   1.900       .  S
O111        C121   1.263       .  A
O112       Cu117   1.904       .  S
O112        C122   1.263       .  A
O113       Cu118   2.118       .  S
O113        C122   1.288       .  A
O114       Cu118   2.105       .  S
O114        C121   1.285       .  A
O115       Cu118   2.110       .  S
O115        C120   1.287       .  A
O116       Cu118   2.104       .  S
O116        C119   1.286       .  A
Cu117      Cu118   2.335       .  S
C119       C1205   1.500       .  S
C121        C425   1.504       .  S
C122        C785   1.509       .  S
O123       Cu131   1.914       .  S
O123        C133   1.265       .  A
O124       Cu131   1.910       .  S
O124        C134   1.265       .  A
O125       Cu131   1.906       .  S
O125        C135   1.263       .  A
O126       Cu131   1.910       .  S
O126        C136   1.264       .  A
O127       Cu132   2.108       .  S
O127        C136   1.287       .  A
O128       Cu132   2.110       .  S
O128        C135   1.287       .  A
O129       Cu132   2.108       .  S
O129        C134   1.286       .  A
O130       Cu132   2.111       .  S
O130        C133   1.287       .  A
Cu131      Cu132   2.323       .  S
C133        C457   1.507       .  S
C134       C1547   1.505       .  S
C135       C1966   1.505       .  S
O137       Cu145   1.900       .  S
O137        C147   1.263       .  A
O138       Cu145   1.905       .  S
O138        C148   1.264       .  A
O139       Cu145   1.892       .  S
O139        C149   1.262       .  A
O140       Cu145   1.897       .  S
O140        C150   1.263       .  A
O141       Cu146   2.102       .  S
O141        C150   1.286       .  A
O142       Cu146   2.105       .  S
O142        C149   1.286       .  A
O143       Cu146   2.109       .  S
O143        C148   1.286       .  A
O144       Cu146   2.108       .  S
O144        C147   1.286       .  A
Cu145      Cu146   2.337       .  S
C147        C776   1.503       .  S
C148        C436   1.506       .  S
C150       C1215   1.499       .  S
O151       Cu159   1.916       .  S
O151        C161   1.266       .  A
O152       Cu159   1.912       .  S
O152        C162   1.265       .  A
O153       Cu159   1.917       .  S
O153        C163   1.265       .  A
O154       Cu159   1.911       .  S
O154        C164   1.264       .  A
O155       Cu160   2.101       .  S
O155        C164   1.286       .  A
O156       Cu160   2.101       .  S
O156        C163   1.286       .  A
O157       Cu160   2.106       .  S
O157        C162   1.287       .  A
O158       Cu160   2.099       .  S
O158        C161   1.285       .  A
Cu159      Cu160   2.322       .  S
C162       C1947   1.504       .  S
C163       C1556   1.505       .  S
C164        C437   1.502       .  S
C165        C170   1.385       .  A
C165        C546   1.406   1_554  A
C165        N171   1.345       .  A
C166        C545   1.406       .  A
C166        C547   1.405       .  A
C166        H937   1.083       .  S
C167        C176   1.380       .  A
C167        C168   1.384       .  A
C167        C546   1.405   1_554  A
C168        C169   1.401       .  A
C168        N174   1.342       .  A
C169        C170   1.400       .  A
C169        H178   1.082       .  S
C170        C173   1.375       .  A
N171        C172   1.357       .  A
N171       H1321   1.045   1_554  S
C172        C173   1.391       .  A
C173        H179   1.082       .  S
N174        C175   1.353       .  A
N174        H182   1.043       .  S
C175        C176   1.397       .  A
C176       H1320   1.082   1_554  S
H177        C926   1.083       .  S
H180       C1316   1.082       .  S
H181       N1311   1.045       .  S
C183        C188   1.385       .  A
C183        C184   1.400       .  A
C183        N189   1.341       .  A
C184        C185   1.399       .  A
C184        H575   1.082       .  S
C185        C194   1.373       .  A
C185        C186   1.385       .  A
C186        C187   1.402       .  A
C186        N192   1.341       .  A
C187        C188   1.401       .  A
C187        H196   1.083       .  S
C188        C191   1.374       .  A
N189        C190   1.353       .  A
N189        H199   1.044       .  S
C190        C191   1.393       .  A
C191        H197   1.083       .  S
N192        C193   1.354       .  A
N192        H200   1.045       .  S
C193        C194   1.393       .  A
C194        H198   1.082       .  S
H195        C564   1.082       .  S
C201        C206   1.383       .  A
C201        C202   1.402   1_554  A
C201        N207   1.343       .  A
C202        C203   1.402   1_556  A
C202        H593   1.079       .  S
C203        C212   1.376   1_554  A
C203        C204   1.384       .  A
C204        C205   1.399       .  A
C204        N210   1.340       .  A
C205        C206   1.399       .  A
C205       H1734   1.082       .  S
C206        C209   1.371       .  A
N207        C208   1.356       .  A
N207        H597   1.044   1_554  S
C208        C209   1.391       .  A
C209       H1735   1.077       .  S
N210        C211   1.352       .  A
N210       H1738   1.045       .  S
C211        C212   1.395   1_554  A
C212        H596   1.082       .  S
H213        C582   1.079       .  S
H214       C1725   1.082       .  S
H215       C1729   1.077       .  S
H216        C592   1.082       .  S
H217        N587   1.044       .  S
H218       N1730   1.045       .  S
C219        C224   1.384       .  A
C219        C220   1.404   1_554  A
C219        N225   1.343       .  A
C220        C221   1.404   1_556  A
C220        H611   1.083       .  S
C221        C230   1.379       .  A
C221        C222   1.384       .  A
C222        C223   1.401       .  A
C222        N228   1.341       .  A
C223        C224   1.399       .  A
C223        H232   1.082       .  S
C224        C227   1.374       .  A
N225        C226   1.356       .  A
N225        H615   1.044   1_554  S
C226        C227   1.392       .  A
C227        H233   1.082       .  S
N228        C229   1.354       .  A
N228        H236   1.045       .  S
C229        C230   1.397       .  A
C230        H614   1.082   1_554  S
H231        C600   1.083       .  S
H234        C610   1.082       .  S
H235        N605   1.044       .  S
C237        C242   1.383       .  A
C237        C238   1.405       .  A
C237        N243   1.345       .  A
C238        C239   1.405       .  A
C238        H249   1.082       .  S
C239        C248   1.378       .  A
C239        C240   1.384       .  A
C240        C241   1.400       .  A
C240        N246   1.341       .  A
C241        C242   1.400       .  A
C241       H1770   1.082       .  S
C242        C245   1.372       .  A
N243        C244   1.357       .  A
N243        H253   1.044       .  S
C244        C245   1.392       .  A
C245       H1771   1.077       .  S
N246        C247   1.353       .  A
N246       H1774   1.042       .  S
C247        C248   1.397       .  A
C248        H252   1.082       .  S
H250       C1761   1.082       .  S
H251       C1765   1.077       .  S
H254       N1766   1.042       .  S
C255        C260   1.385       .  A
C255       C1776   1.406   1_455  A
C255       N1781   1.345       .  A
C256       C1775   1.406       .  A
C256       C1777   1.405       .  A
C256        H267   1.083       .  S
C257        C258   1.384       .  A
C257       C1776   1.405   1_455  A
C257       C1786   1.379       .  A
C258        C259   1.401       .  A
C258        N264   1.342       .  A
C259        C260   1.401       .  A
C259        H268   1.082       .  S
C260        C263   1.376       .  A
N261       C1775   1.345       .  A
N261       C1782   1.356       .  A
N261        H271   1.044       .  S
C262        C263   1.392       .  A
C262       N1781   1.356       .  A
C263        H269   1.083       .  S
N264        C265   1.353       .  A
N264        H272   1.043       .  S
C265       C1786   1.397       .  A
C266       C1777   1.379       .  A
C266       C1785   1.397       .  A
C266        H270   1.082       .  S
C273        C278   1.384       .  A
C273        C274   1.401       .  A
C273        N279   1.342       .  A
C274        C275   1.400       .  A
C274       H1805   1.079       .  S
C275        C284   1.376       .  A
C275        C276   1.384       .  A
C276        C277   1.404       .  A
C276        N282   1.343       .  A
C277        C278   1.403       .  A
C277        H286   1.082       .  S
C278        C281   1.378       .  A
N279        C280   1.354       .  A
N279       H1809   1.044       .  S
C280        C281   1.394       .  A
C281        H287   1.082       .  S
N282        C283   1.354       .  A
N282        H290   1.042       .  S
C283        C284   1.394       .  A
C284       H1808   1.082       .  S
H285       C1794   1.079       .  S
H288       C1804   1.082       .  S
H289       N1799   1.044       .  S
C291        C296   1.384       .  A
C291       C1052   1.403   1_545  A
C291       N1057   1.344       .  A
C292       C1051   1.403       .  A
C292       C1053   1.402       .  A
C292        H303   1.079       .  S
C293        C294   1.383       .  A
C293       C1052   1.402   1_545  A
C293       C1062   1.378       .  A
C294        C295   1.403       .  A
C294        N300   1.342       .  A
C295        C296   1.402       .  A
C295        H304   1.082       .  S
C296        C299   1.376       .  A
N297       C1051   1.344       .  A
N297       C1058   1.355       .  A
N297        H307   1.044       .  S
C298        C299   1.394       .  A
C298       N1057   1.355       .  A
C299        H305   1.083       .  S
N300        C301   1.354       .  A
N300        H308   1.043       .  S
C301       C1062   1.397       .  A
C302       C1053   1.378       .  A
C302       C1061   1.397       .  A
C302        H306   1.082       .  S
C309        C314   1.384       .  A
C309       C1070   1.402   1_545  A
C309       N1075   1.342       .  A
C310       C1069   1.402       .  A
C310       C1071   1.401       .  A
C310        H321   1.080       .  S
C311        C312   1.384       .  A
C311       C1070   1.401   1_545  A
C311       C1080   1.377       .  A
C312        C313   1.403       .  A
C312        N318   1.342       .  A
C313        C314   1.402       .  A
C313        H322   1.082       .  S
C314        C317   1.378       .  A
N315       C1069   1.342       .  A
N315       C1076   1.354       .  A
N315        H325   1.044       .  S
C316        C317   1.394       .  A
C316       N1075   1.354       .  A
C317        H323   1.082       .  S
N318        C319   1.354       .  A
N318        H326   1.045       .  S
C319       C1080   1.394       .  A
C320       C1071   1.377       .  A
C320       C1079   1.394       .  A
C320        H324   1.082       .  S
C327        C332   1.384       .  A
C327        C328   1.403       .  A
C327        N333   1.342       .  A
C328        C329   1.402       .  A
C328        H339   1.082       .  S
C329        C338   1.376       .  A
C329        C330   1.385       .  A
C330        C331   1.402       .  A
C330        N336   1.344       .  A
C331        C332   1.402       .  A
C331        H340   1.079       .  S
C332        C335   1.377       .  A
N333        C334   1.354       .  A
N333        H343   1.042       .  S
C334        C335   1.395       .  A
C335        H341   1.082       .  S
N336        C337   1.355       .  A
N336        H344   1.044       .  S
C337        C338   1.394       .  A
C338        H342   1.083       .  S
C345        C350   1.384       .  A
C345        C346   1.401       .  A
C345        N351   1.342       .  A
C346        C347   1.400       .  A
C346        H357   1.080       .  S
C347        C356   1.376       .  A
C347        C348   1.384       .  A
C348        C349   1.404       .  A
C348        N354   1.343       .  A
C349        C350   1.403       .  A
C349        H358   1.082       .  S
C350        C353   1.378       .  A
N351        C352   1.355       .  A
N351        H361   1.044       .  S
C352        C353   1.394       .  A
C353        H359   1.082       .  S
N354        C355   1.355       .  A
N354        H362   1.045       .  S
C355        C356   1.395       .  A
C356        H360   1.082       .  S
C363        C368   1.384       .  A
C363        C364   1.405       .  A
C363        N369   1.344       .  A
C364        C365   1.405       .  A
C364        H375   1.083       .  S
C365        C374   1.380       .  A
C365        C366   1.384       .  A
C366        C367   1.400       .  A
C366        N372   1.340       .  A
C367        C368   1.399       .  A
C367        H376   1.082       .  S
C368        C371   1.373       .  A
N369        C370   1.357       .  A
N369        H379   1.044       .  S
C370        C371   1.391       .  A
C371        H377   1.080       .  S
N372        C373   1.353       .  A
N372        H380   1.042       .  S
C373        C374   1.398       .  A
C374        H378   1.082       .  S
C381        H382   1.093       .  S
C381        C387   1.531       .  S
C381        C386   1.531       .  S
C381        C385   1.533       .  S
C383        H384   1.111       .  S
C383        C389   1.559       .  S
C383        C388   1.559       .  S
C383        C390   1.561       .  S
C385        C388   1.372       .  D
C385        C529   1.502       .  S
C386        C389   1.371       .  D
C386        C485   1.507       .  S
C387        C390   1.372       .  D
C387        C541   1.503       .  S
C388        C735   1.475       .  S
C389        C714   1.474       .  S
C390        C753   1.478       .  S
C391       H1152   1.093       .  S
C391        C397   1.534       .  S
C391        C396   1.531       .  S
C391        C395   1.532       .  S
H392       C1151   1.093       .  S
C393        H394   1.111       .  S
C393        C399   1.561       .  S
C393        C398   1.561       .  S
C393        C400   1.559       .  S
C395        C398   1.371       .  D
C395       C1247   1.503   1_545  S
C396        C399   1.372       .  D
C396       C1287   1.503   1_545  S
C397        C400   1.371       .  D
C397        C516   1.506       .  S
C398        C681   1.479       .  S
C399        C699   1.471       .  S
C400        C750   1.476       .  S
C401       H2682   1.094       .  S
C401        C407   1.532       .  S
C401        C406   1.532       .  S
C401        C405   1.535       .  S
H402       C2681   1.094       .  S
C403        H404   1.111       .  S
C403        C409   1.561       .  S
C403        C408   1.560       .  S
C403        C410   1.560       .  S
C405        C408   1.370       .  D
C405       C1262   1.509   1_545  S
C406        C409   1.371       .  D
C406       C2766   1.502   1_445  S
C407        C410   1.371       .  D
C407       C2034   1.505   1_455  S
C408        C696   1.473       .  S
C409        C642   1.476       .  S
C410        C660   1.473       .  S
C411       H1932   1.094       .  S
C411        C417   1.531       .  S
C411        C416   1.531       .  S
C411        C415   1.533       .  S
H412       C1931   1.094       .  S
C413        H414   1.111       .  S
C413        C419   1.558       .  S
C413        C418   1.562       .  S
C413        C420   1.561       .  S
C415        C418   1.373       .  D
C415        C500   1.505       .  S
C416        C419   1.369       .  D
C416       C2063   1.505   1_455  S
C417        C420   1.371       .  D
C417       C2008   1.500   1_455  S
C418        C732   1.474       .  S
C419        C663   1.474       .  S
C420        C627   1.477       .  S
C421       H1562   1.093       .  S
C421        C427   1.532       .  S
C421        C426   1.535       .  S
C421        C425   1.533       .  S
H422       C1561   1.093       .  S
C423        H424   1.111       .  S
C423        C429   1.560       .  S
C423        C428   1.561       .  S
C423        C430   1.558       .  S
C425        C428   1.374       .  D
C426        C429   1.371       .  D
C426       C1992   1.507   1_455  S
C427        C430   1.369       .  D
C427       C1682   1.504   1_455  S
C428        C609   1.476       .  S
C429        C624   1.478       .  S
C430        C588   1.473       .  S
C431        C437   1.531       .  S
C431        C436   1.534       .  S
C431        C435   1.532       .  S
C433        H434   1.111       .  S
C433        C439   1.557       .  S
C433        C438   1.560       .  S
C433        C440   1.554       .  S
C435        C438   1.373       .  D
C435        C473   1.506       .  S
C436        C439   1.371       .  D
C437        C440   1.370       .  D
C438        C717   1.473       .  S
C439        C606   1.474       .  S
C440        C573   1.470       .  S
C441       H2342   1.094       .  S
C441        C447   1.532       .  S
C441        C446   1.530       .  S
C441        C445   1.535       .  S
H442       C2341   1.094       .  S
C443        H444   1.111       .  S
C443        C449   1.563       .  S
C443        C448   1.560       .  S
C443        C450   1.561       .  S
C445        C448   1.370       .  D
C445        C879   1.500   1_545  S
C446        C449   1.371       .  D
C446       C1655   1.505   1_455  S
C447        C450   1.370       .  D
C447       C2754   1.505   1_445  S
C448        C555   1.478       .  S
C449        C591   1.470       .  S
C450        C645   1.478       .  S
C451        H832   1.094       .  S
C451        C457   1.532       .  S
C451        C456   1.533       .  S
C451        C455   1.534       .  S
H452        C831   1.094       .  S
C453        H454   1.111       .  S
C453        C459   1.560       .  S
C453        C458   1.556       .  S
C453        C460   1.556       .  S
C455        C458   1.369       .  D
C455        C910   1.499   1_545  S
C456        C459   1.372       .  D
C456       C1231   1.504   1_545  S
C457        C460   1.371       .  D
C458        C552   1.474       .  S
C459        C678   1.475       .  S
C460        C570   1.468       .  S
O461       Cu469   1.907       .  S
O461        C471   1.264       .  A
O462       Cu469   1.912       .  S
O462        C472   1.265       .  A
O463       Cu469   1.907       .  S
O463        C473   1.265       .  A
O464       Cu469   1.914       .  S
O464        C474   1.265       .  A
O465       Cu470   2.106       .  S
O465        C474   1.287       .  A
O466       Cu470   2.110       .  S
O466        C473   1.286       .  A
O467       Cu470   2.108       .  S
O467        C472   1.287       .  A
O468       Cu470   2.108       .  S
O468        C471   1.287       .  A
Cu469      Cu470   2.331       .  S
C471       C1216   1.504       .  S
C472       C1946   1.507       .  S
C474       C2727   1.505       .  S
O475       Cu483   1.916       .  S
O475        C485   1.265       .  A
O476       Cu483   1.912       .  S
O476        C486   1.265       .  A
O477       Cu483   1.906       .  S
O477        C487   1.264       .  A
O478       Cu483   1.907       .  S
O478        C488   1.264       .  A
O479       Cu484   2.095       .  S
O479        C488   1.285       .  A
O480       Cu484   2.103       .  S
O480        C487   1.286       .  A
O481       Cu484   2.104       .  S
O481        C486   1.286       .  A
O482       Cu484   2.106       .  S
O482        C485   1.286       .  A
Cu483      Cu484   2.326       .  S
C486       C2686   1.502       .  S
C487       C1155   1.503       .  S
C488       C1937   1.500       .  S
O489       Cu497   1.893       .  S
O489        C499   1.262       .  A
O490       Cu497   1.893       .  S
O490        C500   1.262       .  A
O491       Cu497   1.900       .  S
O491        C501   1.263       .  A
O492       Cu497   1.904       .  S
O492        C502   1.263       .  A
O493       Cu498   2.118       .  S
O493        C502   1.288       .  A
O494       Cu498   2.105       .  S
O494        C501   1.285       .  A
O495       Cu498   2.110       .  S
O495        C500   1.287       .  A
O496       Cu498   2.104       .  S
O496        C499   1.286       .  A
Cu497      Cu498   2.335       .  S
C499        C825   1.500   1_556  S
C502       C1165   1.509       .  S
O503       Cu511   1.914       .  S
O503        C513   1.265       .  A
O504       Cu511   1.910       .  S
O504        C514   1.265       .  A
O505       Cu511   1.906       .  S
O505        C515   1.263       .  A
O506       Cu511   1.910       .  S
O506        C516   1.264       .  A
O507       Cu512   2.108       .  S
O507        C516   1.287       .  A
O508       Cu512   2.110       .  S
O508        C515   1.287       .  A
O509       Cu512   2.108       .  S
O509        C514   1.286       .  A
O510       Cu512   2.111       .  S
O510        C513   1.287       .  A
Cu511      Cu512   2.323       .  S
C514       C1927   1.505       .  S
C515       C1586   1.505   1_556  S
O517       Cu525   1.900       .  S
O517        C527   1.263       .  A
O518       Cu525   1.905       .  S
O518        C528   1.264       .  A
O519       Cu525   1.892       .  S
O519        C529   1.262       .  A
O520       Cu525   1.897       .  S
O520        C530   1.263       .  A
O521       Cu526   2.102       .  S
O521        C530   1.286       .  A
O522       Cu526   2.105       .  S
O522        C529   1.286       .  A
O523       Cu526   2.109       .  S
O523        C528   1.286       .  A
O524       Cu526   2.108       .  S
O524        C527   1.286       .  A
Cu525      Cu526   2.337       .  S
C527       C1156   1.503       .  S
C530        C835   1.499   1_556  S
O531       Cu539   1.916       .  S
O531        C541   1.266       .  A
O532       Cu539   1.912       .  S
O532        C542   1.265       .  A
O533       Cu539   1.917       .  S
O533        C543   1.265       .  A
O534       Cu539   1.911       .  S
O534        C544   1.264       .  A
O535       Cu540   2.101       .  S
O535        C544   1.286       .  A
O536       Cu540   2.101       .  S
O536        C543   1.286       .  A
O537       Cu540   2.106       .  S
O537        C542   1.287       .  A
O538       Cu540   2.099       .  S
O538        C541   1.285       .  A
Cu539      Cu540   2.322       .  S
C542       C1567   1.504   1_556  S
C543       C1936   1.505       .  S
C545        C550   1.385       .  A
C545        N551   1.345       .  A
C546       H1317   1.083       .  S
C547        C556   1.380       .  A
C547        C548   1.384       .  A
C548        C549   1.401       .  A
C548        N554   1.342       .  A
C549        C550   1.400       .  A
C549        H558   1.082       .  S
C550        C553   1.375       .  A
N551        C552   1.357       .  A
N551        H941   1.045       .  S
C552        C553   1.391       .  A
C553        H559   1.082       .  S
N554        C555   1.353       .  A
N554        H562   1.043       .  S
C555        C556   1.397       .  A
C556        H940   1.082       .  S
H557       C1306   1.083       .  S
H560        C936   1.082   1_556  S
H561        N931   1.045   1_556  S
C563        C568   1.385       .  A
C563        C564   1.400       .  A
C563        N569   1.341       .  A
C564        C565   1.399       .  A
C565        C574   1.373       .  A
C565        C566   1.385       .  A
C566        C567   1.402       .  A
C566        N572   1.341       .  A
C567        C568   1.401       .  A
C567        H576   1.083       .  S
C568        C571   1.374       .  A
N569        C570   1.353       .  A
N569        H579   1.044       .  S
C570        C571   1.393       .  A
C571        H577   1.083       .  S
N572        C573   1.354       .  A
N572        H580   1.045       .  S
C573        C574   1.393       .  A
C574        H578   1.082       .  S
C581        C586   1.383       .  A
C581        C582   1.402       .  A
C581        N587   1.343       .  A
C582        C583   1.402       .  A
C583        C592   1.376       .  A
C583        C584   1.384       .  A
C584        C585   1.399       .  A
C584        N590   1.340       .  A
C585        C586   1.399       .  A
C585       H2114   1.082       .  S
C586        C589   1.371       .  A
N587        C588   1.356       .  A
C588        C589   1.391       .  A
C589       H2115   1.077       .  S
N590        C591   1.352       .  A
N590       H2118   1.045       .  S
C591        C592   1.395       .  A
H594       C2105   1.082       .  S
H595       C2109   1.077       .  S
H598       N2110   1.045       .  S
C599        C604   1.384       .  A
C599        C600   1.404       .  A
C599        N605   1.343       .  A
C600        C601   1.404       .  A
C601        C610   1.379       .  A
C601        C602   1.384       .  A
C602        C603   1.401       .  A
C602        N608   1.341       .  A
C603        C604   1.399       .  A
C603        H612   1.082       .  S
C604        C607   1.374       .  A
N605        C606   1.356       .  A
C606        C607   1.392       .  A
C607        H613   1.082       .  S
N608        C609   1.354       .  A
N608        H616   1.045       .  S
C609        C610   1.397       .  A
C617        C622   1.383       .  A
C617        C618   1.405       .  A
C617        N623   1.345       .  A
C618        C619   1.405       .  A
C618        H629   1.082       .  S
C619        C628   1.378       .  A
C619        C620   1.384       .  A
C620        C621   1.400       .  A
C620        N626   1.341       .  A
C621        C622   1.400       .  A
C621       H2150   1.082       .  S
C622        C625   1.372       .  A
N623        C624   1.357       .  A
N623        H633   1.044       .  S
C624        C625   1.392       .  A
C625       H2151   1.077       .  S
N626        C627   1.353       .  A
N626       H2154   1.042       .  S
C627        C628   1.397       .  A
C628        H632   1.082       .  S
H630       C2141   1.082       .  S
H631       C2145   1.077       .  S
H634       N2146   1.042       .  S
C635        C640   1.385       .  A
C635       C2156   1.406   1_455  A
C635       N2161   1.345       .  A
C636       C2155   1.406       .  A
C636       C2157   1.405       .  A
C636        H647   1.083       .  S
C637       C2156   1.405   1_455  A
C637       C2166   1.379       .  A
C637        C638   1.384       .  A
C638        C639   1.401       .  A
C638        N644   1.342       .  A
C639        C640   1.401       .  A
C639        H648   1.082       .  S
C640        C643   1.376       .  A
N641       C2155   1.345       .  A
N641       C2162   1.356       .  A
N641        H651   1.044       .  S
C642        C643   1.392       .  A
C642       N2161   1.356       .  A
C643        H649   1.083       .  S
N644        C645   1.353       .  A
N644        H652   1.043       .  S
C645       C2166   1.397       .  A
C646       C2157   1.379       .  A
C646       C2165   1.397       .  A
C646        H650   1.082       .  S
C653        C658   1.384       .  A
C653        C654   1.401       .  A
C653        N659   1.342       .  A
C654        C655   1.400       .  A
C654       H2185   1.079       .  S
C655        C664   1.376       .  A
C655        C656   1.384       .  A
C656        C657   1.404       .  A
C656        N662   1.343       .  A
C657        C658   1.403       .  A
C657        H666   1.082       .  S
C658        C661   1.378       .  A
N659        C660   1.354       .  A
N659       H2189   1.045       .  S
C660        C661   1.394       .  A
C661        H667   1.082       .  S
N662        C663   1.354       .  A
N662        H670   1.042       .  S
C663        C664   1.394       .  A
C664       H2188   1.082       .  S
H665       C2174   1.079       .  S
H668       C2184   1.082       .  S
H669       N2179   1.045       .  S
C671        C676   1.384       .  A
C671       C1432   1.403   1_545  A
C671       N1437   1.344       .  A
C672       C1431   1.403       .  A
C672       C1433   1.402       .  A
C672        H683   1.079       .  S
C673       C1432   1.402   1_545  A
C673       C1442   1.378       .  A
C673        C674   1.383       .  A
C674        C675   1.403       .  A
C674        N680   1.342       .  A
C675        C676   1.402       .  A
C675        H684   1.082       .  S
C676        C679   1.376       .  A
N677       C1431   1.344       .  A
N677       C1438   1.355       .  A
N677        H687   1.044       .  S
C678        C679   1.394       .  A
C678       N1437   1.355       .  A
C679        H685   1.083       .  S
N680        C681   1.354       .  A
N680        H688   1.043       .  S
C681       C1442   1.397       .  A
C682       C1433   1.378       .  A
C682       C1441   1.397       .  A
C682        H686   1.082       .  S
C689        C694   1.384       .  A
C689       C1450   1.402   1_545  A
C689       N1455   1.342       .  A
C690       C1449   1.402       .  A
C690       C1451   1.401       .  A
C690        H701   1.080       .  S
C691       C1450   1.401   1_545  A
C691       C1460   1.377       .  A
C691        C692   1.384       .  A
C692        C693   1.403       .  A
C692        N698   1.342       .  A
C693        C694   1.402       .  A
C693        H702   1.082       .  S
C694        C697   1.378       .  A
N695       C1449   1.342       .  A
N695       C1456   1.354       .  A
N695        H705   1.044       .  S
C696        C697   1.394       .  A
C696       N1455   1.354       .  A
C697        H703   1.082       .  S
N698        C699   1.354       .  A
N698        H706   1.045       .  S
C699       C1460   1.394       .  A
C700       C1451   1.377       .  A
C700       C1459   1.394       .  A
C700        H704   1.082       .  S
C707        C712   1.384       .  A
C707        C708   1.403       .  A
C707        N713   1.342       .  A
C708        C709   1.402       .  A
C708        H719   1.082       .  S
C709        C718   1.376       .  A
C709        C710   1.385       .  A
C710        C711   1.402       .  A
C710        N716   1.344       .  A
C711        C712   1.402       .  A
C711        H720   1.079       .  S
C712        C715   1.377       .  A
N713        C714   1.354       .  A
N713        H723   1.042       .  S
C714        C715   1.395       .  A
C715        H721   1.082       .  S
N716        C717   1.355       .  A
N716        H724   1.044       .  S
C717        C718   1.394       .  A
C718        H722   1.083       .  S
C725        C730   1.384       .  A
C725        C726   1.401       .  A
C725        N731   1.342       .  A
C726        C727   1.400       .  A
C726        H737   1.080       .  S
C727        C736   1.376       .  A
C727        C728   1.384       .  A
C728        C729   1.404       .  A
C728        N734   1.343       .  A
C729        C730   1.403       .  A
C729        H738   1.082       .  S
C730        C733   1.378       .  A
N731        C732   1.355       .  A
N731        H741   1.044       .  S
C732        C733   1.394       .  A
C733        H739   1.082       .  S
N734        C735   1.355       .  A
N734        H742   1.045       .  S
C735        C736   1.395       .  A
C736        H740   1.082       .  S
C743        C748   1.384       .  A
C743        C744   1.405       .  A
C743        N749   1.344       .  A
C744        C745   1.405       .  A
C744        H755   1.083       .  S
C745        C754   1.380       .  A
C745        C746   1.384       .  A
C746        C747   1.400       .  A
C746        N752   1.340       .  A
C747        C748   1.399       .  A
C747        H756   1.082       .  S
C748        C751   1.373       .  A
N749        C750   1.357       .  A
N749        H759   1.044       .  S
C750        C751   1.391       .  A
C751        H757   1.080       .  S
N752        C753   1.353       .  A
N752        H760   1.042       .  S
C753        C754   1.398       .  A
C754        H758   1.082       .  S
C761        H762   1.093       .  S
C761        C767   1.531       .  S
C761        C766   1.531       .  S
C761        C765   1.533       .  S
C763        H764   1.111       .  S
C763        C769   1.559       .  S
C763        C768   1.559       .  S
C763        C770   1.561       .  S
C765        C768   1.372       .  D
C765        C909   1.502       .  S
C766        C769   1.371       .  D
C766        C865   1.507       .  S
C767        C770   1.372       .  D
C767        C921   1.503       .  S
C768       C1115   1.475       .  S
C769       C1094   1.474       .  S
C770       C1133   1.478       .  S
C771        C777   1.534       .  S
C771        C776   1.531       .  S
C771        C775   1.532       .  S
C773        H774   1.111       .  S
C773        C779   1.561       .  S
C773        C778   1.561       .  S
C773        C780   1.559       .  S
C775        C778   1.371       .  D
C776        C779   1.372       .  D
C777        C780   1.371       .  D
C777        C896   1.506       .  S
C778       C1061   1.479       .  S
C779       C1079   1.471       .  S
C780       C1130   1.476       .  S
C781       H1542   1.094       .  S
C781        C787   1.532       .  S
C781        C786   1.532       .  S
C781        C785   1.535       .  S
H782       C1541   1.094       .  S
C783        H784   1.111       .  S
C783        C789   1.561       .  S
C783        C788   1.560       .  S
C783        C790   1.560       .  S
C785        C788   1.370       .  D
C786        C789   1.371       .  D
C786       C1626   1.502   1_455  S
C787        C790   1.371       .  D
C787       C2414   1.505   1_455  S
C788       C1076   1.473       .  S
C789       C1022   1.476       .  S
C790       C1040   1.473       .  S
C791       H2312   1.094       .  S
C791        C797   1.531       .  S
C791        C796   1.531       .  S
C791        C795   1.533       .  S
H792       C2311   1.094       .  S
C793        H794   1.111       .  S
C793        C799   1.558       .  S
C793        C798   1.562       .  S
C793        C800   1.561       .  S
C795        C798   1.373       .  D
C795        C880   1.505       .  S
C796        C799   1.369       .  D
C796       C2443   1.505   1_455  S
C797        C800   1.371       .  D
C797       C2388   1.500   1_455  S
C798       C1112   1.474       .  S
C799       C1043   1.474       .  S
C800       C1007   1.477       .  S
C801       H2702   1.093       .  S
C801        C807   1.532       .  S
C801        C806   1.535       .  S
C801        C805   1.533       .  S
H802       C2701   1.093       .  S
C803        H804   1.111       .  S
C803        C809   1.560       .  S
C803        C808   1.561       .  S
C803        C810   1.558       .  S
C805        C808   1.374       .  D
C805       C1261   1.504   1_554  S
C806        C809   1.371       .  D
C806       C2372   1.507   1_455  S
C807        C810   1.369       .  D
C807       C2822   1.504   1_454  S
C808        C989   1.476       .  S
C809       C1004   1.478       .  S
C810        C968   1.473       .  S
C811       H1192   1.093       .  S
C811        C817   1.531       .  S
C811        C816   1.534       .  S
C811        C815   1.532       .  S
H812       C1191   1.093       .  S
C813        H814   1.111       .  S
C813        C819   1.557       .  S
C813        C818   1.560       .  S
C813        C820   1.554       .  S
C815        C818   1.373       .  D
C815        C853   1.506       .  S
C816        C819   1.371       .  D
C816       C1288   1.506   1_554  S
C817        C820   1.370       .  D
C817       C1304   1.502   1_554  S
C818       C1097   1.473       .  S
C819        C986   1.474       .  S
C820        C953   1.470       .  S
C821       H1962   1.094       .  S
C821        C827   1.532       .  S
C821        C826   1.530       .  S
C821        C825   1.535       .  S
H822       C1961   1.094       .  S
C823        H824   1.111       .  S
C823        C829   1.563       .  S
C823        C828   1.560       .  S
C823        C830   1.561       .  S
C825        C828   1.370       .  D
C826        C829   1.371       .  D
C826       C2795   1.505   1_454  S
C827        C830   1.370       .  D
C827       C1614   1.505   1_455  S
C828        C935   1.478       .  S
C829        C971   1.470       .  S
C830       C1025   1.478       .  S
C831        C837   1.532       .  S
C831        C836   1.533       .  S
C831        C835   1.534       .  S
C833        H834   1.111       .  S
C833        C839   1.560       .  S
C833        C838   1.556       .  S
C833        C840   1.556       .  S
C835        C838   1.369       .  D
C836        C839   1.372       .  D
C837        C840   1.371       .  D
C837       C1273   1.507   1_554  S
C838        C932   1.474       .  S
C839       C1058   1.475       .  S
C840        C950   1.468       .  S
O841       Cu849   1.907       .  S
O841        C851   1.264       .  A
O842       Cu849   1.912       .  S
O842        C852   1.265       .  A
O843       Cu849   1.907       .  S
O843        C853   1.265       .  A
O844       Cu849   1.914       .  S
O844        C854   1.265       .  A
O845       Cu850   2.106       .  S
O845        C854   1.287       .  A
O846       Cu850   2.110       .  S
O846        C853   1.286       .  A
O847       Cu850   2.108       .  S
O847        C852   1.287       .  A
O848       Cu850   2.108       .  S
O848        C851   1.287       .  A
Cu849      Cu850   2.331       .  S
C852       C2326   1.507       .  S
C854       C1587   1.505   1_565  S
O855       Cu863   1.916       .  S
O855        C865   1.265       .  A
O856       Cu863   1.912       .  S
O856        C866   1.265       .  A
O857       Cu863   1.906       .  S
O857        C867   1.264       .  A
O858       Cu863   1.907       .  S
O858        C868   1.264       .  A
O859       Cu864   2.095       .  S
O859        C868   1.285       .  A
O860       Cu864   2.103       .  S
O860        C867   1.286       .  A
O861       Cu864   2.104       .  S
O861        C866   1.286       .  A
O862       Cu864   2.106       .  S
O862        C865   1.286       .  A
Cu863      Cu864   2.326       .  S
C866       C1546   1.502   1_565  S
C868       C2317   1.500       .  S
O869       Cu877   1.893       .  S
O869        C879   1.262       .  A
O870       Cu877   1.893       .  S
O870        C880   1.262       .  A
O871       Cu877   1.900       .  S
O871        C881   1.263       .  A
O872       Cu877   1.904       .  S
O872        C882   1.263       .  A
O873       Cu878   2.118       .  S
O873        C882   1.288       .  A
O874       Cu878   2.105       .  S
O874        C881   1.285       .  A
O875       Cu878   2.110       .  S
O875        C880   1.287       .  A
O876       Cu878   2.104       .  S
O876        C879   1.286       .  A
Cu877      Cu878   2.335       .  S
C881       C1185   1.504       .  S
O883       Cu891   1.914       .  S
O883        C893   1.265       .  A
O884       Cu891   1.910       .  S
O884        C894   1.265       .  A
O885       Cu891   1.906       .  S
O885        C895   1.263       .  A
O886       Cu891   1.910       .  S
O886        C896   1.264       .  A
O887       Cu892   2.108       .  S
O887        C896   1.287       .  A
O888       Cu892   2.110       .  S
O888        C895   1.287       .  A
O889       Cu892   2.108       .  S
O889        C894   1.286       .  A
O890       Cu892   2.111       .  S
O890        C893   1.287       .  A
Cu891      Cu892   2.323       .  S
C893       C1217   1.507       .  S
C894       C2307   1.505       .  S
C895       C2726   1.505       .  S
O897       Cu905   1.900       .  S
O897        C907   1.263       .  A
O898       Cu905   1.905       .  S
O898        C908   1.264       .  A
O899       Cu905   1.892       .  S
O899        C909   1.262       .  A
O900       Cu905   1.897       .  S
O900        C910   1.263       .  A
O901       Cu906   2.102       .  S
O901        C910   1.286       .  A
O902       Cu906   2.105       .  S
O902        C909   1.286       .  A
O903       Cu906   2.109       .  S
O903        C908   1.286       .  A
O904       Cu906   2.108       .  S
O904        C907   1.286       .  A
Cu905      Cu906   2.337       .  S
C908       C1196   1.506       .  S
O911       Cu919   1.916       .  S
O911        C921   1.266       .  A
O912       Cu919   1.912       .  S
O912        C922   1.265       .  A
O913       Cu919   1.917       .  S
O913        C923   1.265       .  A
O914       Cu919   1.911       .  S
O914        C924   1.264       .  A
O915       Cu920   2.101       .  S
O915        C924   1.286       .  A
O916       Cu920   2.101       .  S
O916        C923   1.286       .  A
O917       Cu920   2.106       .  S
O917        C922   1.287       .  A
O918       Cu920   2.099       .  S
O918        C921   1.285       .  A
Cu919      Cu920   2.322       .  S
C922       C2707   1.504       .  S
C923       C2316   1.505       .  S
C924       C1197   1.502       .  S
C925        C930   1.385       .  A
C925       C1306   1.406   1_554  A
C925        N931   1.345       .  A
C926       C1305   1.406       .  A
C926       C1307   1.405       .  A
C927       C1306   1.405   1_554  A
C927        C936   1.380       .  A
C927        C928   1.384       .  A
C928        C929   1.401       .  A
C928        N934   1.342       .  A
C929        C930   1.400       .  A
C929        H938   1.082       .  S
C930        C933   1.375       .  A
N931        C932   1.357       .  A
C932        C933   1.391       .  A
C933        H939   1.082       .  S
N934        C935   1.353       .  A
N934        H942   1.043       .  S
C935        C936   1.397       .  A
C943        C948   1.385       .  A
C943        C944   1.400       .  A
C943        N949   1.341       .  A
C944        C945   1.399       .  A
C944       H1335   1.082       .  S
C945        C954   1.373       .  A
C945        C946   1.385       .  A
C946        C947   1.402       .  A
C946        N952   1.341       .  A
C947        C948   1.401       .  A
C947        H956   1.083       .  S
C948        C951   1.374       .  A
N949        C950   1.353       .  A
N949        H959   1.044       .  S
C950        C951   1.393       .  A
C951        H957   1.083       .  S
N952        C953   1.354       .  A
N952        H960   1.045       .  S
C953        C954   1.393       .  A
C954        H958   1.082       .  S
H955       C1324   1.082       .  S
C961        C966   1.383       .  A
C961        C962   1.402   1_554  A
C961        N967   1.343       .  A
C962        C963   1.402   1_556  A
C962       H1353   1.079       .  S
C963        C972   1.376   1_554  A
C963        C964   1.384       .  A
C964        C965   1.399       .  A
C964        N970   1.340       .  A
C965        C966   1.399       .  A
C965       H2494   1.082       .  S
C966        C969   1.371       .  A
N967        C968   1.356       .  A
N967       H1357   1.044   1_554  S
C968        C969   1.391       .  A
C969       H2495   1.077       .  S
N970        C971   1.352       .  A
N970       H2498   1.045       .  S
C971        C972   1.395   1_554  A
C972       H1356   1.082       .  S
H973       C1342   1.079       .  S
H974       C2485   1.082       .  S
H975       C2489   1.077       .  S
H976       C1352   1.082       .  S
H977       N1347   1.044       .  S
H978       N2490   1.045       .  S
C979        C984   1.384       .  A
C979        C980   1.404   1_554  A
C979        N985   1.343       .  A
C980        C981   1.404   1_556  A
C980       H1371   1.083       .  S
C981        C990   1.379       .  A
C981        C982   1.384       .  A
C982        C983   1.401       .  A
C982        N988   1.341       .  A
C983        C984   1.399       .  A
C983        H992   1.082       .  S
C984        C987   1.374       .  A
N985        C986   1.356       .  A
N985       H1375   1.044   1_554  S
C986        C987   1.392       .  A
C987        H993   1.082       .  S
N988        C989   1.354       .  A
N988        H996   1.045       .  S
C989        C990   1.397       .  A
C990       H1374   1.082   1_554  S
H991       C1360   1.083       .  S
H994       C1370   1.082       .  S
H995       N1365   1.044       .  S
C997       C1002   1.383       .  A
C997        C998   1.405       .  A
C997       N1003   1.345       .  A
C998        C999   1.405       .  A
C998       H1009   1.082       .  S
C999       C1008   1.378       .  A
C999       C1000   1.384       .  A
C1000      C1001   1.400       .  A
C1000      N1006   1.341       .  A
C1001      C1002   1.400       .  A
C1001      H2530   1.082       .  S
C1002      C1005   1.372       .  A
N1003      C1004   1.357       .  A
N1003      H1013   1.044       .  S
C1004      C1005   1.392       .  A
C1005      H2531   1.077       .  S
N1006      C1007   1.353       .  A
N1006      H2534   1.042       .  S
C1007      C1008   1.397       .  A
C1008      H1012   1.082       .  S
H1010      C2521   1.082       .  S
H1011      C2525   1.077       .  S
H1014      N2526   1.042       .  S
C1015      C1020   1.385       .  A
C1015      C2536   1.406   1_455  A
C1015      N2541   1.345       .  A
C1016      C2535   1.406       .  A
C1016      C2537   1.405       .  A
C1016      H1027   1.083       .  S
C1017      C2536   1.405   1_455  A
C1017      C2546   1.379       .  A
C1017      C1018   1.384       .  A
C1018      C1019   1.401       .  A
C1018      N1024   1.342       .  A
C1019      C1020   1.401       .  A
C1019      H1028   1.082       .  S
C1020      C1023   1.376       .  A
N1021      C2535   1.345       .  A
N1021      C2542   1.356       .  A
N1021      H1031   1.044       .  S
C1022      C1023   1.392       .  A
C1022      N2541   1.356       .  A
C1023      H1029   1.083       .  S
N1024      C1025   1.353       .  A
N1024      H1032   1.043       .  S
C1025      C2546   1.397       .  A
C1026      C2537   1.379       .  A
C1026      C2545   1.397       .  A
C1026      H1030   1.082       .  S
C1033      C1038   1.384       .  A
C1033      C1034   1.401       .  A
C1033      N1039   1.342       .  A
C1034      C1035   1.400       .  A
C1034      H2565   1.079       .  S
C1035      C1044   1.376       .  A
C1035      C1036   1.384       .  A
C1036      C1037   1.404       .  A
C1036      N1042   1.343       .  A
C1037      C1038   1.403       .  A
C1037      H1046   1.082       .  S
C1038      C1041   1.378       .  A
N1039      C1040   1.354       .  A
N1039      H2569   1.044       .  S
C1040      C1041   1.394       .  A
C1041      H1047   1.082       .  S
N1042      C1043   1.354       .  A
N1042      H1050   1.042       .  S
C1043      C1044   1.394       .  A
C1044      H2568   1.082       .  S
H1045      C2554   1.079       .  S
H1048      C2564   1.082       .  S
H1049      N2559   1.044       .  S
C1051      C1056   1.384       .  A
C1052      H1063   1.079       .  S
C1053      C1054   1.383       .  A
C1054      C1055   1.403       .  A
C1054      N1060   1.342       .  A
C1055      C1056   1.402       .  A
C1055      H1064   1.082       .  S
C1056      C1059   1.376       .  A
N1057      H1067   1.044   1_545  S
C1058      C1059   1.394       .  A
C1059      H1065   1.083       .  S
N1060      C1061   1.354       .  A
N1060      H1068   1.043       .  S
C1062      H1066   1.082   1_545  S
C1069      C1074   1.384       .  A
C1070      H1081   1.080       .  S
C1071      C1072   1.384       .  A
C1072      C1073   1.403       .  A
C1072      N1078   1.342       .  A
C1073      C1074   1.402       .  A
C1073      H1082   1.082       .  S
C1074      C1077   1.378       .  A
N1075      H1085   1.044   1_545  S
C1076      C1077   1.394       .  A
C1077      H1083   1.082       .  S
N1078      C1079   1.354       .  A
N1078      H1086   1.045       .  S
C1080      H1084   1.082   1_545  S
C1087      C1092   1.384       .  A
C1087      C1088   1.403       .  A
C1087      N1093   1.342       .  A
C1088      C1089   1.402       .  A
C1088      H1099   1.082       .  S
C1089      C1098   1.376       .  A
C1089      C1090   1.385       .  A
C1090      C1091   1.402       .  A
C1090      N1096   1.344       .  A
C1091      C1092   1.402       .  A
C1091      H1100   1.079       .  S
C1092      C1095   1.377       .  A
N1093      C1094   1.354       .  A
N1093      H1103   1.042       .  S
C1094      C1095   1.395       .  A
C1095      H1101   1.082       .  S
N1096      C1097   1.355       .  A
N1096      H1104   1.044       .  S
C1097      C1098   1.394       .  A
C1098      H1102   1.083       .  S
C1105      C1110   1.384       .  A
C1105      C1106   1.401       .  A
C1105      N1111   1.342       .  A
C1106      C1107   1.400       .  A
C1106      H1117   1.080       .  S
C1107      C1116   1.376       .  A
C1107      C1108   1.384       .  A
C1108      C1109   1.404       .  A
C1108      N1114   1.343       .  A
C1109      C1110   1.403       .  A
C1109      H1118   1.082       .  S
C1110      C1113   1.378       .  A
N1111      C1112   1.355       .  A
N1111      H1121   1.044       .  S
C1112      C1113   1.394       .  A
C1113      H1119   1.082       .  S
N1114      C1115   1.355       .  A
N1114      H1122   1.045       .  S
C1115      C1116   1.395       .  A
C1116      H1120   1.082       .  S
C1123      C1128   1.384       .  A
C1123      C1124   1.405       .  A
C1123      N1129   1.344       .  A
C1124      C1125   1.405       .  A
C1124      H1135   1.083       .  S
C1125      C1134   1.380       .  A
C1125      C1126   1.384       .  A
C1126      C1127   1.400       .  A
C1126      N1132   1.340       .  A
C1127      C1128   1.399       .  A
C1127      H1136   1.082       .  S
C1128      C1131   1.373       .  A
N1129      C1130   1.357       .  A
N1129      H1139   1.044       .  S
C1130      C1131   1.391       .  A
C1131      H1137   1.080       .  S
N1132      C1133   1.353       .  A
N1132      H1140   1.042       .  S
C1133      C1134   1.398       .  A
C1134      H1138   1.082       .  S
C1141      H1142   1.093       .  S
C1141      C1147   1.531       .  S
C1141      C1146   1.531       .  S
C1141      C1145   1.533       .  S
C1143      H1144   1.111       .  S
C1143      C1149   1.559       .  S
C1143      C1148   1.559       .  S
C1143      C1150   1.561       .  S
C1145      C1148   1.372       .  D
C1145      C1289   1.502       .  S
C1146      C1149   1.371       .  D
C1146      C1245   1.507       .  S
C1147      C1150   1.372       .  D
C1147      C1301   1.503       .  S
C1148      C1495   1.475       .  S
C1149      C1474   1.474       .  S
C1150      C1513   1.478       .  S
C1151      C1157   1.534       .  S
C1151      C1156   1.531       .  S
C1151      C1155   1.532       .  S
C1153      H1154   1.111       .  S
C1153      C1159   1.561       .  S
C1153      C1158   1.561       .  S
C1153      C1160   1.559       .  S
C1155      C1158   1.371       .  D
C1156      C1159   1.372       .  D
C1157      C1160   1.370       .  D
C1157      C1276   1.506       .  S
C1158      C1441   1.479       .  S
C1159      C1459   1.471       .  S
C1160      C1510   1.476       .  S
C1161      H1922   1.094       .  S
C1161      C1167   1.532       .  S
C1161      C1166   1.532       .  S
C1161      C1165   1.535       .  S
H1162      C1921   1.094       .  S
C1163      H1164   1.111       .  S
C1163      C1169   1.561       .  S
C1163      C1168   1.560       .  S
C1163      C1170   1.560       .  S
C1165      C1168   1.370       .  D
C1166      C1169   1.371       .  D
C1166      C2006   1.502   1_455  S
C1167      C1170   1.371       .  D
C1167      C2794   1.505   1_455  S
C1168      C1456   1.473       .  S
C1169      C1402   1.476       .  S
C1170      C1420   1.473       .  S
C1171      H2692   1.094       .  S
C1171      C1177   1.531       .  S
C1171      C1176   1.531       .  S
C1171      C1175   1.533       .  S
H1172      C2691   1.094       .  S
C1173      H1174   1.111       .  S
C1173      C1179   1.558       .  S
C1173      C1178   1.562       .  S
C1173      C1180   1.561       .  S
C1175      C1178   1.373       .  D
C1175      C1260   1.505       .  S
C1176      C1179   1.369       .  D
C1176      C2823   1.505   1_455  S
C1177      C1180   1.371       .  D
C1177      C2768   1.500   1_455  S
C1178      C1492   1.474       .  S
C1179      C1423   1.474       .  S
C1180      C1387   1.477       .  S
C1181      H2322   1.093       .  S
C1181      C1187   1.532       .  S
C1181      C1186   1.535       .  S
C1181      C1185   1.533       .  S
H1182      C2321   1.093       .  S
C1183      H1184   1.111       .  S
C1183      C1189   1.560       .  S
C1183      C1188   1.561       .  S
C1183      C1190   1.558       .  S
C1185      C1188   1.374       .  D
C1186      C1189   1.371       .  D
C1186      C2752   1.507   1_455  S
C1187      C1190   1.369       .  D
C1187      C2442   1.504   1_455  S
C1188      C1369   1.476       .  S
C1189      C1384   1.478       .  S
C1190      C1348   1.473       .  S
C1191      C1197   1.531       .  S
C1191      C1196   1.534       .  S
C1191      C1195   1.532       .  S
C1193      H1194   1.111       .  S
C1193      C1199   1.557       .  S
C1193      C1198   1.560       .  S
C1193      C1200   1.554       .  S
C1195      C1198   1.373       .  D
C1195      C1233   1.506       .  S
C1196      C1199   1.371       .  D
C1197      C1200   1.370       .  D
C1198      C1477   1.473       .  S
C1199      C1366   1.474       .  S
C1200      C1333   1.470       .  S
C1201      H1582   1.094       .  S
C1201      C1207   1.532       .  S
C1201      C1206   1.530       .  S
C1201      C1205   1.535       .  S
H1202      C1581   1.094       .  S
C1203      H1204   1.111       .  S
C1203      C1209   1.563       .  S
C1203      C1208   1.560       .  S
C1203      C1210   1.561       .  S
C1205      C1208   1.370       .  D
C1206      C1209   1.371       .  D
C1206      C2415   1.505   1_455  S
C1207      C1210   1.370       .  D
C1207      C1994   1.505   1_455  S
C1208      C1315   1.478       .  S
C1209      C1351   1.470       .  S
C1210      C1405   1.478       .  S
C1211      C1217   1.532       .  S
C1211      C1216   1.533       .  S
C1211      C1215   1.534       .  S
C1213      H1214   1.111       .  S
C1213      C1219   1.560       .  S
C1213      C1218   1.556       .  S
C1213      C1220   1.556       .  S
C1215      C1218   1.369       .  D
C1216      C1219   1.372       .  D
C1217      C1220   1.371       .  D
C1218      C1312   1.474       .  S
C1219      C1438   1.475       .  S
C1220      C1330   1.468       .  S
O1221     Cu1229   1.907       .  S
O1221      C1231   1.264       .  A
O1222     Cu1229   1.912       .  S
O1222      C1232   1.265       .  A
O1223     Cu1229   1.907       .  S
O1223      C1233   1.265       .  A
O1224     Cu1229   1.914       .  S
O1224      C1234   1.265       .  A
O1225     Cu1230   2.106       .  S
O1225      C1234   1.287       .  A
O1226     Cu1230   2.110       .  S
O1226      C1233   1.286       .  A
O1227     Cu1230   2.108       .  S
O1227      C1232   1.287       .  A
O1228     Cu1230   2.108       .  S
O1228      C1231   1.287       .  A
Cu1229    Cu1230   2.331       .  S
C1232      C2706   1.507       .  S
C1234      C1967   1.505   1_565  S
O1235     Cu1243   1.916       .  S
O1235      C1245   1.265       .  A
O1236     Cu1243   1.912       .  S
O1236      C1246   1.265       .  A
O1237     Cu1243   1.906       .  S
O1237      C1247   1.264       .  A
O1238     Cu1243   1.907       .  S
O1238      C1248   1.264       .  A
O1239     Cu1244   2.095       .  S
O1239      C1248   1.285       .  A
O1240     Cu1244   2.103       .  S
O1240      C1247   1.286       .  A
O1241     Cu1244   2.104       .  S
O1241      C1246   1.286       .  A
O1242     Cu1244   2.106       .  S
O1242      C1245   1.286       .  A
Cu1243    Cu1244   2.326       .  S
C1246      C1926   1.502   1_565  S
C1248      C2697   1.500       .  S
O1249     Cu1257   1.893       .  S
O1249      C1259   1.262       .  A
O1250     Cu1257   1.893       .  S
O1250      C1260   1.262       .  A
O1251     Cu1257   1.900       .  S
O1251      C1261   1.263       .  A
O1252     Cu1257   1.904       .  S
O1252      C1262   1.263       .  A
O1253     Cu1258   2.118       .  S
O1253      C1262   1.288       .  A
O1254     Cu1258   2.105       .  S
O1254      C1261   1.285       .  A
O1255     Cu1258   2.110       .  S
O1255      C1260   1.287       .  A
O1256     Cu1258   2.104       .  S
O1256      C1259   1.286       .  A
Cu1257    Cu1258   2.335       .  S
O1263     Cu1271   1.914       .  S
O1263      C1273   1.265       .  A
O1264     Cu1271   1.910       .  S
O1264      C1274   1.265       .  A
O1265     Cu1271   1.906       .  S
O1265      C1275   1.263       .  A
O1266     Cu1271   1.910       .  S
O1266      C1276   1.264       .  A
O1267     Cu1272   2.108       .  S
O1267      C1276   1.287       .  A
O1268     Cu1272   2.110       .  S
O1268      C1275   1.287       .  A
O1269     Cu1272   2.108       .  S
O1269      C1274   1.286       .  A
O1270     Cu1272   2.111       .  S
O1270      C1273   1.287       .  A
Cu1271    Cu1272   2.323       .  S
C1274      C2687   1.505       .  S
C1275      C2346   1.505   1_556  S
O1277     Cu1285   1.900       .  S
O1277      C1287   1.263       .  A
O1278     Cu1285   1.905       .  S
O1278      C1288   1.264       .  A
O1279     Cu1285   1.892       .  S
O1279      C1289   1.262       .  A
O1280     Cu1285   1.897       .  S
O1280      C1290   1.263       .  A
O1281     Cu1286   2.102       .  S
O1281      C1290   1.286       .  A
O1282     Cu1286   2.105       .  S
O1282      C1289   1.286       .  A
O1283     Cu1286   2.109       .  S
O1283      C1288   1.286       .  A
O1284     Cu1286   2.108       .  S
O1284      C1287   1.286       .  A
Cu1285    Cu1286   2.337       .  S
O1291     Cu1299   1.916       .  S
O1291      C1301   1.266       .  A
O1292     Cu1299   1.912       .  S
O1292      C1302   1.265       .  A
O1293     Cu1299   1.917       .  S
O1293      C1303   1.265       .  A
O1294     Cu1299   1.911       .  S
O1294      C1304   1.264       .  A
O1295     Cu1300   2.101       .  S
O1295      C1304   1.286       .  A
O1296     Cu1300   2.101       .  S
O1296      C1303   1.286       .  A
O1297     Cu1300   2.106       .  S
O1297      C1302   1.287       .  A
O1298     Cu1300   2.099       .  S
O1298      C1301   1.285       .  A
Cu1299    Cu1300   2.322       .  S
C1302      C2327   1.504   1_556  S
C1303      C2696   1.505       .  S
C1305      C1310   1.385       .  A
C1305      N1311   1.345       .  A
C1307      C1316   1.380       .  A
C1307      C1308   1.384       .  A
C1308      C1309   1.401       .  A
C1308      N1314   1.342       .  A
C1309      C1310   1.400       .  A
C1309      H1318   1.082       .  S
C1310      C1313   1.375       .  A
N1311      C1312   1.357       .  A
C1312      C1313   1.391       .  A
C1313      H1319   1.082       .  S
N1314      C1315   1.353       .  A
N1314      H1322   1.043       .  S
C1315      C1316   1.397       .  A
C1323      C1328   1.385       .  A
C1323      C1324   1.400       .  A
C1323      N1329   1.341       .  A
C1324      C1325   1.399       .  A
C1325      C1334   1.373       .  A
C1325      C1326   1.385       .  A
C1326      C1327   1.402       .  A
C1326      N1332   1.341       .  A
C1327      C1328   1.401       .  A
C1327      H1336   1.083       .  S
C1328      C1331   1.374       .  A
N1329      C1330   1.353       .  A
N1329      H1339   1.044       .  S
C1330      C1331   1.393       .  A
C1331      H1337   1.083       .  S
N1332      C1333   1.354       .  A
N1332      H1340   1.045       .  S
C1333      C1334   1.393       .  A
C1334      H1338   1.082       .  S
C1341      C1346   1.383       .  A
C1341      C1342   1.402       .  A
C1341      N1347   1.343       .  A
C1342      C1343   1.402       .  A
C1343      C1352   1.376       .  A
C1343      C1344   1.384       .  A
C1344      C1345   1.399       .  A
C1344      N1350   1.340       .  A
C1345      C1346   1.399       .  A
C1345      H2874   1.082       .  S
C1346      C1349   1.371       .  A
N1347      C1348   1.356       .  A
C1348      C1349   1.391       .  A
C1349      H2875   1.077       .  S
N1350      C1351   1.352       .  A
N1350      H2878   1.045       .  S
C1351      C1352   1.395       .  A
H1354      C2865   1.082       .  S
H1355      C2869   1.077       .  S
H1358      N2870   1.045       .  S
C1359      C1364   1.384       .  A
C1359      C1360   1.404       .  A
C1359      N1365   1.343       .  A
C1360      C1361   1.404       .  A
C1361      C1370   1.379       .  A
C1361      C1362   1.384       .  A
C1362      C1363   1.401       .  A
C1362      N1368   1.341       .  A
C1363      C1364   1.399       .  A
C1363      H1372   1.082       .  S
C1364      C1367   1.374       .  A
N1365      C1366   1.356       .  A
C1366      C1367   1.392       .  A
C1367      H1373   1.082       .  S
N1368      C1369   1.354       .  A
N1368      H1376   1.045       .  S
C1369      C1370   1.397       .  A
C1377      C1382   1.383       .  A
C1377      C1378   1.405       .  A
C1377      N1383   1.345       .  A
C1378      C1379   1.405       .  A
C1378      H1389   1.082       .  S
C1379      C1388   1.378       .  A
C1379      C1380   1.384       .  A
C1380      C1381   1.400       .  A
C1380      N1386   1.341       .  A
C1381      C1382   1.400       .  A
C1381      H2910   1.082       .  S
C1382      C1385   1.372       .  A
N1383      C1384   1.357       .  A
N1383      H1393   1.044       .  S
C1384      C1385   1.392       .  A
C1385      H2911   1.077       .  S
N1386      C1387   1.353       .  A
N1386      H2914   1.042       .  S
C1387      C1388   1.397       .  A
C1388      H1392   1.082       .  S
H1390      C2901   1.082       .  S
H1391      C2905   1.077       .  S
H1394      N2906   1.042       .  S
C1395      C1400   1.385       .  A
C1395      C2916   1.406   1_455  A
C1395      N2921   1.345       .  A
C1396      C2915   1.406       .  A
C1396      C2917   1.405       .  A
C1396      H1407   1.083       .  S
C1397      C2916   1.405   1_455  A
C1397      C2926   1.379       .  A
C1397      C1398   1.384       .  A
C1398      C1399   1.401       .  A
C1398      N1404   1.342       .  A
C1399      C1400   1.401       .  A
C1399      H1408   1.082       .  S
C1400      C1403   1.376       .  A
N1401      C2915   1.345       .  A
N1401      C2922   1.356       .  A
N1401      H1411   1.044       .  S
C1402      C1403   1.392       .  A
C1402      N2921   1.356       .  A
C1403      H1409   1.083       .  S
N1404      C1405   1.353       .  A
N1404      H1412   1.043       .  S
C1405      C2926   1.397       .  A
C1406      C2917   1.379       .  A
C1406      C2925   1.397       .  A
C1406      H1410   1.082       .  S
C1413      C1418   1.384       .  A
C1413      C1414   1.401       .  A
C1413      N1419   1.342       .  A
C1414      C1415   1.400       .  A
C1414      H2945   1.079       .  S
C1415      C1424   1.376       .  A
C1415      C1416   1.384       .  A
C1416      C1417   1.404       .  A
C1416      N1422   1.343       .  A
C1417      C1418   1.403       .  A
C1417      H1426   1.082       .  S
C1418      C1421   1.378       .  A
N1419      C1420   1.354       .  A
N1419      H2949   1.044       .  S
C1420      C1421   1.394       .  A
C1421      H1427   1.082       .  S
N1422      C1423   1.354       .  A
N1422      H1430   1.042       .  S
C1423      C1424   1.394       .  A
C1424      H2948   1.082       .  S
H1425      C2934   1.079       .  S
H1428      C2944   1.082       .  S
H1429      N2939   1.045       .  S
C1431      C1436   1.384       .  A
C1432      H1443   1.079       .  S
C1433      C1434   1.383       .  A
C1434      C1435   1.403       .  A
C1434      N1440   1.342       .  A
C1435      C1436   1.402       .  A
C1435      H1444   1.082       .  S
C1436      C1439   1.376       .  A
N1437      H1447   1.044   1_545  S
C1438      C1439   1.394       .  A
C1439      H1445   1.083       .  S
N1440      C1441   1.354       .  A
N1440      H1448   1.043       .  S
C1442      H1446   1.082   1_545  S
C1449      C1454   1.384       .  A
C1450      H1461   1.080       .  S
C1451      C1452   1.384       .  A
C1452      C1453   1.403       .  A
C1452      N1458   1.342       .  A
C1453      C1454   1.402       .  A
C1453      H1462   1.082       .  S
C1454      C1457   1.378       .  A
N1455      H1465   1.044   1_545  S
C1456      C1457   1.394       .  A
C1457      H1463   1.082       .  S
N1458      C1459   1.354       .  A
N1458      H1466   1.045       .  S
C1460      H1464   1.082   1_545  S
C1467      C1472   1.384       .  A
C1467      C1468   1.403       .  A
C1467      N1473   1.342       .  A
C1468      C1469   1.402       .  A
C1468      H1479   1.082       .  S
C1469      C1478   1.376       .  A
C1469      C1470   1.385       .  A
C1470      C1471   1.402       .  A
C1470      N1476   1.344       .  A
C1471      C1472   1.402       .  A
C1471      H1480   1.079       .  S
C1472      C1475   1.377       .  A
N1473      C1474   1.354       .  A
N1473      H1483   1.042       .  S
C1474      C1475   1.395       .  A
C1475      H1481   1.082       .  S
N1476      C1477   1.355       .  A
N1476      H1484   1.044       .  S
C1477      C1478   1.394       .  A
C1478      H1482   1.083       .  S
C1485      C1490   1.384       .  A
C1485      C1486   1.401       .  A
C1485      N1491   1.342       .  A
C1486      C1487   1.400       .  A
C1486      H1497   1.080       .  S
C1487      C1496   1.376       .  A
C1487      C1488   1.384       .  A
C1488      C1489   1.404       .  A
C1488      N1494   1.343       .  A
C1489      C1490   1.403       .  A
C1489      H1498   1.082       .  S
C1490      C1493   1.378       .  A
N1491      C1492   1.355       .  A
N1491      H1501   1.044       .  S
C1492      C1493   1.394       .  A
C1493      H1499   1.082       .  S
N1494      C1495   1.355       .  A
N1494      H1502   1.045       .  S
C1495      C1496   1.395       .  A
C1496      H1500   1.082       .  S
C1503      C1508   1.384       .  A
C1503      C1504   1.405       .  A
C1503      N1509   1.344       .  A
C1504      C1505   1.405       .  A
C1504      H1515   1.083       .  S
C1505      C1514   1.380       .  A
C1505      C1506   1.384       .  A
C1506      C1507   1.400       .  A
C1506      N1512   1.340       .  A
C1507      C1508   1.399       .  A
C1507      H1516   1.082       .  S
C1508      C1511   1.373       .  A
N1509      C1510   1.357       .  A
N1509      H1519   1.044       .  S
C1510      C1511   1.391       .  A
C1511      H1517   1.080       .  S
N1512      C1513   1.353       .  A
N1512      H1520   1.042       .  S
C1513      C1514   1.398       .  A
C1514      H1518   1.082       .  S
C1521      H1522   1.093       .  S
C1521      C1527   1.531       .  S
C1521      C1526   1.531       .  S
C1521      C1525   1.533       .  S
C1523      H1524   1.111       .  S
C1523      C1529   1.559       .  S
C1523      C1528   1.559       .  S
C1523      C1530   1.561       .  S
C1525      C1528   1.372       .  D
C1525      C1669   1.502       .  S
C1526      C1529   1.371       .  D
C1526      C1625   1.507       .  S
C1527      C1530   1.372       .  D
C1527      C1681   1.503       .  S
C1528      C1875   1.475       .  S
C1529      C1854   1.474       .  S
C1530      C1893   1.478       .  S
C1531      H2292   1.093       .  S
C1531      C1537   1.534       .  S
C1531      C1536   1.531       .  S
C1531      C1535   1.532       .  S
H1532      C2291   1.093       .  S
C1533      H1534   1.111       .  S
C1533      C1539   1.561       .  S
C1533      C1538   1.561       .  S
C1533      C1540   1.559       .  S
C1535      C1538   1.371       .  D
C1535      C2387   1.503   1_545  S
C1536      C1539   1.372       .  D
C1536      C2427   1.503   1_545  S
C1537      C1540   1.370       .  D
C1537      C1656   1.506       .  S
C1538      C1821   1.479       .  S
C1539      C1839   1.471       .  S
C1540      C1890   1.476       .  S
C1541      C1547   1.532       .  S
C1541      C1546   1.532       .  S
C1541      C1545   1.535       .  S
C1543      H1544   1.111       .  S
C1543      C1549   1.561       .  S
C1543      C1548   1.560       .  S
C1543      C1550   1.560       .  S
C1545      C1548   1.370       .  D
C1545      C2402   1.509   1_545  S
C1546      C1549   1.371       .  D
C1547      C1550   1.371       .  D
C1548      C1836   1.473       .  S
C1549      C1782   1.476       .  S
C1550      C1800   1.473       .  S
C1551      C1557   1.531       .  S
C1551      C1556   1.531       .  S
C1551      C1555   1.533       .  S
C1553      H1554   1.111       .  S
C1553      C1559   1.558       .  S
C1553      C1558   1.562       .  S
C1553      C1560   1.561       .  S
C1555      C1558   1.373       .  D
C1555      C1640   1.505       .  S
C1556      C1559   1.369       .  D
C1557      C1560   1.371       .  D
C1558      C1872   1.474       .  S
C1559      C1803   1.474       .  S
C1560      C1767   1.477       .  S
C1561      C1567   1.532       .  S
C1561      C1566   1.535       .  S
C1561      C1565   1.533       .  S
C1563      H1564   1.111       .  S
C1563      C1569   1.560       .  S
C1563      C1568   1.561       .  S
C1563      C1570   1.558       .  S
C1565      C1568   1.374       .  D
C1565      C2021   1.504   1_554  S
C1566      C1569   1.371       .  D
C1567      C1570   1.369       .  D
C1568      C1749   1.476       .  S
C1569      C1764   1.478       .  S
C1570      C1728   1.473       .  S
C1571      H1952   1.093       .  S
C1571      C1577   1.531       .  S
C1571      C1576   1.534       .  S
C1571      C1575   1.532       .  S
H1572      C1951   1.093       .  S
C1573      H1574   1.111       .  S
C1573      C1579   1.557       .  S
C1573      C1578   1.560       .  S
C1573      C1580   1.554       .  S
C1575      C1578   1.373       .  D
C1575      C1613   1.506       .  S
C1576      C1579   1.371       .  D
C1576      C2048   1.506   1_554  S
C1577      C1580   1.370       .  D
C1577      C2064   1.502   1_554  S
C1578      C1857   1.473       .  S
C1579      C1746   1.474       .  S
C1580      C1713   1.470       .  S
C1581      C1587   1.532       .  S
C1581      C1586   1.530       .  S
C1581      C1585   1.535       .  S
C1583      H1584   1.111       .  S
C1583      C1589   1.563       .  S
C1583      C1588   1.560       .  S
C1583      C1590   1.561       .  S
C1585      C1588   1.370       .  D
C1585      C2779   1.500   1_544  S
C1586      C1589   1.371       .  D
C1587      C1590   1.370       .  D
C1588      C1695   1.478       .  S
C1589      C1731   1.470       .  S
C1590      C1785   1.478       .  S
C1591      H2732   1.094       .  S
C1591      C1597   1.532       .  S
C1591      C1596   1.533       .  S
C1591      C1595   1.534       .  S
H1592      C2731   1.094       .  S
C1593      H1594   1.111       .  S
C1593      C1599   1.560       .  S
C1593      C1598   1.556       .  S
C1593      C1600   1.556       .  S
C1595      C1598   1.369       .  D
C1595      C2810   1.499   1_544  S
C1596      C1599   1.372       .  D
C1596      C2371   1.504   1_545  S
C1597      C1600   1.371       .  D
C1597      C2033   1.507   1_554  S
C1598      C1692   1.474       .  S
C1599      C1818   1.475       .  S
C1600      C1710   1.468       .  S
O1601     Cu1609   1.907       .  S
O1601      C1611   1.264       .  A
O1602     Cu1609   1.912       .  S
O1602      C1612   1.265       .  A
O1603     Cu1609   1.908       .  S
O1603      C1613   1.265       .  A
O1604     Cu1609   1.914       .  S
O1604      C1614   1.265       .  A
O1605     Cu1610   2.106       .  S
O1605      C1614   1.287       .  A
O1606     Cu1610   2.110       .  S
O1606      C1613   1.286       .  A
O1607     Cu1610   2.108       .  S
O1607      C1612   1.287       .  A
O1608     Cu1610   2.108       .  S
O1608      C1611   1.287       .  A
Cu1609    Cu1610   2.331       .  S
C1611      C2356   1.504       .  S
O1615     Cu1623   1.916       .  S
O1615      C1625   1.265       .  A
O1616     Cu1623   1.912       .  S
O1616      C1626   1.265       .  A
O1617     Cu1623   1.906       .  S
O1617      C1627   1.264       .  A
O1618     Cu1623   1.907       .  S
O1618      C1628   1.264       .  A
O1619     Cu1624   2.095       .  S
O1619      C1628   1.285       .  A
O1620     Cu1624   2.103       .  S
O1620      C1627   1.286       .  A
O1621     Cu1624   2.104       .  S
O1621      C1626   1.286       .  A
O1622     Cu1624   2.106       .  S
O1622      C1625   1.286       .  A
Cu1623    Cu1624   2.326       .  S
C1627      C2295   1.503       .  S
O1629     Cu1637   1.893       .  S
O1629      C1639   1.262       .  A
O1630     Cu1637   1.893       .  S
O1630      C1640   1.262       .  A
O1631     Cu1637   1.900       .  S
O1631      C1641   1.263       .  A
O1632     Cu1637   1.904       .  S
O1632      C1642   1.263       .  A
O1633     Cu1638   2.118       .  S
O1633      C1642   1.288       .  A
O1634     Cu1638   2.105       .  S
O1634      C1641   1.285       .  A
O1635     Cu1638   2.110       .  S
O1635      C1640   1.287       .  A
O1636     Cu1638   2.104       .  S
O1636      C1639   1.286       .  A
Cu1637    Cu1638   2.335       .  S
C1639      C2725   1.500       .  S
C1641      C1945   1.504       .  S
C1642      C2305   1.509       .  S
O1643     Cu1651   1.914       .  S
O1643      C1653   1.265       .  A
O1644     Cu1651   1.910       .  S
O1644      C1654   1.265       .  A
O1645     Cu1651   1.906       .  S
O1645      C1655   1.263       .  A
O1646     Cu1651   1.910       .  S
O1646      C1656   1.264       .  A
O1647     Cu1652   2.108       .  S
O1647      C1656   1.287       .  A
O1648     Cu1652   2.110       .  S
O1648      C1655   1.287       .  A
O1649     Cu1652   2.108       .  S
O1649      C1654   1.286       .  A
O1650     Cu1652   2.111       .  S
O1650      C1653   1.287       .  A
Cu1651    Cu1652   2.323       .  S
C1653      C1977   1.507       .  S
O1657     Cu1665   1.900       .  S
O1657      C1667   1.263       .  A
O1658     Cu1665   1.905       .  S
O1658      C1668   1.264       .  A
O1659     Cu1665   1.892       .  S
O1659      C1669   1.262       .  A
O1660     Cu1665   1.897       .  S
O1660      C1670   1.263       .  A
O1661     Cu1666   2.102       .  S
O1661      C1670   1.286       .  A
O1662     Cu1666   2.105       .  S
O1662      C1669   1.286       .  A
O1663     Cu1666   2.109       .  S
O1663      C1668   1.286       .  A
O1664     Cu1666   2.108       .  S
O1664      C1667   1.286       .  A
Cu1665    Cu1666   2.337       .  S
C1667      C2296   1.503       .  S
C1668      C1956   1.506       .  S
C1670      C2735   1.499       .  S
O1671     Cu1679   1.916       .  S
O1671      C1681   1.266       .  A
O1672     Cu1679   1.912       .  S
O1672      C1682   1.265       .  A
O1673     Cu1679   1.917       .  S
O1673      C1683   1.265       .  A
O1674     Cu1679   1.911       .  S
O1674      C1684   1.264       .  A
O1675     Cu1680   2.101       .  S
O1675      C1684   1.286       .  A
O1676     Cu1680   2.101       .  S
O1676      C1683   1.286       .  A
O1677     Cu1680   2.106       .  S
O1677      C1682   1.287       .  A
O1678     Cu1680   2.099       .  S
O1678      C1681   1.285       .  A
Cu1679    Cu1680   2.322       .  S
C1684      C1957   1.502       .  S
C1685      C1690   1.385       .  A
C1685      C2066   1.406   1_554  A
C1685      N1691   1.345       .  A
C1686      C2065   1.406       .  A
C1686      C2067   1.405       .  A
C1686      H2457   1.083       .  S
C1687      C2066   1.405   1_554  A
C1687      C1696   1.380       .  A
C1687      C1688   1.384       .  A
C1688      C1689   1.401       .  A
C1688      N1694   1.342       .  A
C1689      C1690   1.400       .  A
C1689      H1698   1.082       .  S
C1690      C1693   1.375       .  A
N1691      C1692   1.357       .  A
N1691      H2841   1.045   1_554  S
C1692      C1693   1.391       .  A
C1693      H1699   1.082       .  S
N1694      C1695   1.353       .  A
N1694      H1702   1.043       .  S
C1695      C1696   1.397       .  A
C1696      H2840   1.082   1_554  S
H1697      C2446   1.083       .  S
H1700      C2836   1.082       .  S
H1701      N2831   1.045       .  S
C1703      C1708   1.385       .  A
C1703      C1704   1.400       .  A
C1703      N1709   1.341       .  A
C1704      C1705   1.399       .  A
C1704      H2095   1.082       .  S
C1705      C1714   1.373       .  A
C1705      C1706   1.385       .  A
C1706      C1707   1.402       .  A
C1706      N1712   1.341       .  A
C1707      C1708   1.401       .  A
C1707      H1716   1.083       .  S
C1708      C1711   1.374       .  A
N1709      C1710   1.353       .  A
N1709      H1719   1.044       .  S
C1710      C1711   1.393       .  A
C1711      H1717   1.083       .  S
N1712      C1713   1.354       .  A
N1712      H1720   1.045       .  S
C1713      C1714   1.393       .  A
C1714      H1718   1.082       .  S
H1715      C2084   1.082       .  S
C1721      C1726   1.383       .  A
C1721      C1722   1.402   1_554  A
C1721      N1727   1.343       .  A
C1722      C1723   1.402   1_556  A
C1722      H2113   1.079       .  S
C1723      C1732   1.376   1_554  A
C1723      C1724   1.384       .  A
C1724      C1725   1.399       .  A
C1724      N1730   1.340       .  A
C1725      C1726   1.399       .  A
C1726      C1729   1.371       .  A
N1727      C1728   1.356       .  A
N1727      H2117   1.044   1_554  S
C1728      C1729   1.391       .  A
N1730      C1731   1.352       .  A
C1731      C1732   1.395   1_554  A
C1732      H2116   1.082       .  S
H1733      C2102   1.079       .  S
H1736      C2112   1.082       .  S
H1737      N2107   1.044       .  S
C1739      C1744   1.384       .  A
C1739      C1740   1.404   1_554  A
C1739      N1745   1.343       .  A
C1740      C1741   1.404   1_556  A
C1740      H2131   1.083       .  S
C1741      C1750   1.379       .  A
C1741      C1742   1.384       .  A
C1742      C1743   1.401       .  A
C1742      N1748   1.341       .  A
C1743      C1744   1.399       .  A
C1743      H1752   1.082       .  S
C1744      C1747   1.374       .  A
N1745      C1746   1.356       .  A
N1745      H2135   1.044   1_554  S
C1746      C1747   1.392       .  A
C1747      H1753   1.082       .  S
N1748      C1749   1.354       .  A
N1748      H1756   1.045       .  S
C1749      C1750   1.397       .  A
C1750      H2134   1.082   1_554  S
H1751      C2120   1.083       .  S
H1754      C2130   1.082       .  S
H1755      N2125   1.044       .  S
C1757      C1762   1.383       .  A
C1757      C1758   1.405       .  A
C1757      N1763   1.345       .  A
C1758      C1759   1.405       .  A
C1758      H1769   1.082       .  S
C1759      C1768   1.378       .  A
C1759      C1760   1.384       .  A
C1760      C1761   1.400       .  A
C1760      N1766   1.341       .  A
C1761      C1762   1.400       .  A
C1762      C1765   1.372       .  A
N1763      C1764   1.357       .  A
N1763      H1773   1.044       .  S
C1764      C1765   1.392       .  A
N1766      C1767   1.353       .  A
C1767      C1768   1.397       .  A
C1768      H1772   1.082       .  S
C1775      C1780   1.385       .  A
C1776      H1787   1.083       .  S
C1777      C1778   1.384       .  A
C1778      C1779   1.401       .  A
C1778      N1784   1.342       .  A
C1779      C1780   1.401       .  A
C1779      H1788   1.082       .  S
C1780      C1783   1.376       .  A
N1781      H1791   1.044   1_455  S
C1782      C1783   1.392       .  A
C1783      H1789   1.083       .  S
N1784      C1785   1.353       .  A
N1784      H1792   1.043       .  S
C1786      H1790   1.082   1_455  S
C1793      C1798   1.384       .  A
C1793      C1794   1.401       .  A
C1793      N1799   1.342       .  A
C1794      C1795   1.400       .  A
C1795      C1804   1.376       .  A
C1795      C1796   1.384       .  A
C1796      C1797   1.404       .  A
C1796      N1802   1.343       .  A
C1797      C1798   1.403       .  A
C1797      H1806   1.082       .  S
C1798      C1801   1.378       .  A
N1799      C1800   1.354       .  A
C1800      C1801   1.394       .  A
C1801      H1807   1.082       .  S
N1802      C1803   1.354       .  A
N1802      H1810   1.042       .  S
C1803      C1804   1.394       .  A
C1811      C1816   1.384       .  A
C1811      C2572   1.403   1_545  A
C1811      N2577   1.344       .  A
C1812      C2571   1.403       .  A
C1812      C2573   1.402       .  A
C1812      H1823   1.079       .  S
C1813      C2572   1.402   1_545  A
C1813      C2582   1.378       .  A
C1813      C1814   1.383       .  A
C1814      C1815   1.403       .  A
C1814      N1820   1.342       .  A
C1815      C1816   1.402       .  A
C1815      H1824   1.082       .  S
C1816      C1819   1.376       .  A
N1817      C2571   1.344       .  A
N1817      C2578   1.355       .  A
N1817      H1827   1.044       .  S
C1818      C1819   1.394       .  A
C1818      N2577   1.355       .  A
C1819      H1825   1.083       .  S
N1820      C1821   1.354       .  A
N1820      H1828   1.042       .  S
C1821      C2582   1.397       .  A
C1822      C2573   1.378       .  A
C1822      C2581   1.397       .  A
C1822      H1826   1.082       .  S
C1829      C1834   1.384       .  A
C1829      C2590   1.402   1_545  A
C1829      N2595   1.342       .  A
C1830      C2589   1.402       .  A
C1830      C2591   1.401       .  A
C1830      H1841   1.080       .  S
C1831      C2590   1.401   1_545  A
C1831      C2600   1.377       .  A
C1831      C1832   1.384       .  A
C1832      C1833   1.403       .  A
C1832      N1838   1.342       .  A
C1833      C1834   1.402       .  A
C1833      H1842   1.082       .  S
C1834      C1837   1.378       .  A
N1835      C2589   1.342       .  A
N1835      C2596   1.354       .  A
N1835      H1845   1.044       .  S
C1836      C1837   1.394       .  A
C1836      N2595   1.354       .  A
C1837      H1843   1.082       .  S
N1838      C1839   1.354       .  A
N1838      H1846   1.045       .  S
C1839      C2600   1.394       .  A
C1840      C2591   1.377       .  A
C1840      C2599   1.394       .  A
C1840      H1844   1.082       .  S
C1847      C1852   1.384       .  A
C1847      C1848   1.403       .  A
C1847      N1853   1.342       .  A
C1848      C1849   1.402       .  A
C1848      H1859   1.082       .  S
C1849      C1858   1.376       .  A
C1849      C1850   1.385       .  A
C1850      C1851   1.402       .  A
C1850      N1856   1.344       .  A
C1851      C1852   1.402       .  A
C1851      H1860   1.079       .  S
C1852      C1855   1.377       .  A
N1853      C1854   1.354       .  A
N1853      H1863   1.042       .  S
C1854      C1855   1.395       .  A
C1855      H1861   1.082       .  S
N1856      C1857   1.355       .  A
N1856      H1864   1.044       .  S
C1857      C1858   1.394       .  A
C1858      H1862   1.083       .  S
C1865      C1870   1.384       .  A
C1865      C1866   1.401       .  A
C1865      N1871   1.342       .  A
C1866      C1867   1.400       .  A
C1866      H1877   1.080       .  S
C1867      C1876   1.376       .  A
C1867      C1868   1.384       .  A
C1868      C1869   1.404       .  A
C1868      N1874   1.343       .  A
C1869      C1870   1.403       .  A
C1869      H1878   1.082       .  S
C1870      C1873   1.378       .  A
N1871      C1872   1.355       .  A
N1871      H1881   1.044       .  S
C1872      C1873   1.394       .  A
C1873      H1879   1.082       .  S
N1874      C1875   1.355       .  A
N1874      H1882   1.045       .  S
C1875      C1876   1.395       .  A
C1876      H1880   1.082       .  S
C1883      C1888   1.384       .  A
C1883      C1884   1.405       .  A
C1883      N1889   1.344       .  A
C1884      C1885   1.405       .  A
C1884      H1895   1.083       .  S
C1885      C1894   1.380       .  A
C1885      C1886   1.384       .  A
C1886      C1887   1.400       .  A
C1886      N1892   1.340       .  A
C1887      C1888   1.399       .  A
C1887      H1896   1.082       .  S
C1888      C1891   1.373       .  A
N1889      C1890   1.357       .  A
N1889      H1899   1.044       .  S
C1890      C1891   1.391       .  A
C1891      H1897   1.080       .  S
N1892      C1893   1.353       .  A
N1892      H1900   1.042       .  S
C1893      C1894   1.398       .  A
C1894      H1898   1.082       .  S
C1901      H1902   1.093       .  S
C1901      C1907   1.531       .  S
C1901      C1906   1.531       .  S
C1901      C1905   1.533       .  S
C1903      H1904   1.111       .  S
C1903      C1909   1.559       .  S
C1903      C1908   1.559       .  S
C1903      C1910   1.561       .  S
C1905      C1908   1.372       .  D
C1905      C2049   1.502       .  S
C1906      C1909   1.371       .  D
C1906      C2005   1.507       .  S
C1907      C1910   1.372       .  D
C1907      C2061   1.503       .  S
C1908      C2255   1.475       .  S
C1909      C2234   1.474       .  S
C1910      C2273   1.478       .  S
C1911      H2672   1.093       .  S
C1911      C1917   1.534       .  S
C1911      C1916   1.531       .  S
C1911      C1915   1.532       .  S
H1912      C2671   1.093       .  S
C1913      H1914   1.111       .  S
C1913      C1919   1.561       .  S
C1913      C1918   1.561       .  S
C1913      C1920   1.559       .  S
C1915      C1918   1.371       .  D
C1915      C2767   1.503   1_545  S
C1916      C1919   1.372       .  D
C1916      C2807   1.503   1_545  S
C1917      C1920   1.371       .  D
C1917      C2036   1.506       .  S
C1918      C2201   1.479       .  S
C1919      C2219   1.471       .  S
C1920      C2270   1.476       .  S
C1921      C1927   1.532       .  S
C1921      C1926   1.532       .  S
C1921      C1925   1.535       .  S
C1923      H1924   1.111       .  S
C1923      C1929   1.561       .  S
C1923      C1928   1.560       .  S
C1923      C1930   1.560       .  S
C1925      C1928   1.370       .  D
C1925      C2782   1.509   1_545  S
C1926      C1929   1.371       .  D
C1927      C1930   1.371       .  D
C1928      C2216   1.473       .  S
C1929      C2162   1.476       .  S
C1930      C2180   1.473       .  S
C1931      C1937   1.531       .  S
C1931      C1936   1.531       .  S
C1931      C1935   1.533       .  S
C1933      H1934   1.111       .  S
C1933      C1939   1.558       .  S
C1933      C1938   1.562       .  S
C1933      C1940   1.561       .  S
C1935      C1938   1.373       .  D
C1935      C2020   1.505       .  S
C1936      C1939   1.369       .  D
C1937      C1940   1.371       .  D
C1938      C2252   1.474       .  S
C1939      C2183   1.474       .  S
C1940      C2147   1.477       .  S
C1941      C1947   1.532       .  S
C1941      C1946   1.535       .  S
C1941      C1945   1.533       .  S
C1943      H1944   1.111       .  S
C1943      C1949   1.560       .  S
C1943      C1948   1.561       .  S
C1943      C1950   1.558       .  S
C1945      C1948   1.374       .  D
C1946      C1949   1.371       .  D
C1947      C1950   1.369       .  D
C1948      C2129   1.476       .  S
C1949      C2144   1.478       .  S
C1950      C2108   1.473       .  S
C1951      C1957   1.531       .  S
C1951      C1956   1.534       .  S
C1951      C1955   1.532       .  S
C1953      H1954   1.111       .  S
C1953      C1959   1.557       .  S
C1953      C1958   1.560       .  S
C1953      C1960   1.554       .  S
C1955      C1958   1.373       .  D
C1955      C1993   1.506       .  S
C1956      C1959   1.371       .  D
C1957      C1960   1.370       .  D
C1958      C2237   1.473       .  S
C1959      C2126   1.474       .  S
C1960      C2093   1.470       .  S
C1961      C1967   1.532       .  S
C1961      C1966   1.530       .  S
C1961      C1965   1.535       .  S
C1963      H1964   1.111       .  S
C1963      C1969   1.563       .  S
C1963      C1968   1.560       .  S
C1963      C1970   1.561       .  S
C1965      C1968   1.370       .  D
C1965      C2399   1.500   1_545  S
C1966      C1969   1.371       .  D
C1967      C1970   1.370       .  D
C1968      C2075   1.478       .  S
C1969      C2111   1.470       .  S
C1970      C2165   1.478       .  S
C1971      H2352   1.094       .  S
C1971      C1977   1.532       .  S
C1971      C1976   1.533       .  S
C1971      C1975   1.534       .  S
H1972      C2351   1.094       .  S
C1973      H1974   1.111       .  S
C1973      C1979   1.560       .  S
C1973      C1978   1.556       .  S
C1973      C1980   1.556       .  S
C1975      C1978   1.369       .  D
C1975      C2430   1.499   1_545  S
C1976      C1979   1.372       .  D
C1976      C2751   1.504   1_545  S
C1977      C1980   1.371       .  D
C1978      C2072   1.474       .  S
C1979      C2198   1.475       .  S
C1980      C2090   1.468       .  S
O1981     Cu1989   1.907       .  S
O1981      C1991   1.264       .  A
O1982     Cu1989   1.912       .  S
O1982      C1992   1.265       .  A
O1983     Cu1989   1.907       .  S
O1983      C1993   1.265       .  A
O1984     Cu1989   1.914       .  S
O1984      C1994   1.265       .  A
O1985     Cu1990   2.106       .  S
O1985      C1994   1.287       .  A
O1986     Cu1990   2.110       .  S
O1986      C1993   1.286       .  A
O1987     Cu1990   2.108       .  S
O1987      C1992   1.287       .  A
O1988     Cu1990   2.108       .  S
O1988      C1991   1.287       .  A
Cu1989    Cu1990   2.331       .  S
C1991      C2736   1.504       .  S
O1995     Cu2003   1.916       .  S
O1995      C2005   1.265       .  A
O1996     Cu2003   1.912       .  S
O1996      C2006   1.265       .  A
O1997     Cu2003   1.906       .  S
O1997      C2007   1.264       .  A
O1998     Cu2003   1.907       .  S
O1998      C2008   1.264       .  A
O1999     Cu2004   2.095       .  S
O1999      C2008   1.285       .  A
O2000     Cu2004   2.103       .  S
O2000      C2007   1.286       .  A
O2001     Cu2004   2.104       .  S
O2001      C2006   1.286       .  A
O2002     Cu2004   2.106       .  S
O2002      C2005   1.286       .  A
Cu2003    Cu2004   2.326       .  S
C2007      C2675   1.503       .  S
O2009     Cu2017   1.893       .  S
O2009      C2019   1.262       .  A
O2010     Cu2017   1.893       .  S
O2010      C2020   1.262       .  A
O2011     Cu2017   1.900       .  S
O2011      C2021   1.263       .  A
O2012     Cu2017   1.904       .  S
O2012      C2022   1.263       .  A
O2013     Cu2018   2.118       .  S
O2013      C2022   1.288       .  A
O2014     Cu2018   2.105       .  S
O2014      C2021   1.285       .  A
O2015     Cu2018   2.110       .  S
O2015      C2020   1.287       .  A
O2016     Cu2018   2.104       .  S
O2016      C2019   1.286       .  A
Cu2017    Cu2018   2.335       .  S
C2019      C2345   1.500   1_556  S
C2022      C2685   1.509       .  S
O2023     Cu2031   1.914       .  S
O2023      C2033   1.265       .  A
O2024     Cu2031   1.910       .  S
O2024      C2034   1.265       .  A
O2025     Cu2031   1.906       .  S
O2025      C2035   1.263       .  A
O2026     Cu2031   1.910       .  S
O2026      C2036   1.264       .  A
O2027     Cu2032   2.108       .  S
O2027      C2036   1.287       .  A
O2028     Cu2032   2.110       .  S
O2028      C2035   1.287       .  A
O2029     Cu2032   2.108       .  S
O2029      C2034   1.286       .  A
O2030     Cu2032   2.111       .  S
O2030      C2033   1.287       .  A
Cu2031    Cu2032   2.323       .  S
O2037     Cu2045   1.900       .  S
O2037      C2047   1.263       .  A
O2038     Cu2045   1.905       .  S
O2038      C2048   1.264       .  A
O2039     Cu2045   1.892       .  S
O2039      C2049   1.262       .  A
O2040     Cu2045   1.897       .  S
O2040      C2050   1.263       .  A
O2041     Cu2046   2.102       .  S
O2041      C2050   1.286       .  A
O2042     Cu2046   2.105       .  S
O2042      C2049   1.286       .  A
O2043     Cu2046   2.109       .  S
O2043      C2048   1.286       .  A
O2044     Cu2046   2.108       .  S
O2044      C2047   1.286       .  A
Cu2045    Cu2046   2.337       .  S
C2047      C2676   1.503       .  S
C2050      C2355   1.499   1_556  S
O2051     Cu2059   1.916       .  S
O2051      C2061   1.266       .  A
O2052     Cu2059   1.912       .  S
O2052      C2062   1.265       .  A
O2053     Cu2059   1.917       .  S
O2053      C2063   1.265       .  A
O2054     Cu2059   1.911       .  S
O2054      C2064   1.264       .  A
O2055     Cu2060   2.101       .  S
O2055      C2064   1.286       .  A
O2056     Cu2060   2.101       .  S
O2056      C2063   1.286       .  A
O2057     Cu2060   2.106       .  S
O2057      C2062   1.287       .  A
O2058     Cu2060   2.099       .  S
O2058      C2061   1.285       .  A
Cu2059    Cu2060   2.322       .  S
C2065      C2070   1.385       .  A
C2065      N2071   1.345       .  A
C2066      H2837   1.083       .  S
C2067      C2076   1.380       .  A
C2067      C2068   1.384       .  A
C2068      C2069   1.401       .  A
C2068      N2074   1.342       .  A
C2069      C2070   1.400       .  A
C2069      H2078   1.082       .  S
C2070      C2073   1.375       .  A
N2071      C2072   1.357       .  A
N2071      H2461   1.045       .  S
C2072      C2073   1.391       .  A
C2073      H2079   1.082       .  S
N2074      C2075   1.353       .  A
N2074      H2082   1.043       .  S
C2075      C2076   1.397       .  A
C2076      H2460   1.082       .  S
H2077      C2826   1.083       .  S
H2080      C2456   1.082   1_556  S
H2081      N2451   1.045   1_556  S
C2083      C2088   1.385       .  A
C2083      C2084   1.400       .  A
C2083      N2089   1.341       .  A
C2084      C2085   1.399       .  A
C2085      C2094   1.373       .  A
C2085      C2086   1.385       .  A
C2086      C2087   1.402       .  A
C2086      N2092   1.341       .  A
C2087      C2088   1.401       .  A
C2087      H2096   1.083       .  S
C2088      C2091   1.374       .  A
N2089      C2090   1.353       .  A
N2089      H2099   1.044       .  S
C2090      C2091   1.393       .  A
C2091      H2097   1.083       .  S
N2092      C2093   1.354       .  A
N2092      H2100   1.045       .  S
C2093      C2094   1.393       .  A
C2094      H2098   1.082       .  S
C2101      C2106   1.383       .  A
C2101      C2102   1.402       .  A
C2101      N2107   1.343       .  A
C2102      C2103   1.402       .  A
C2103      C2112   1.376       .  A
C2103      C2104   1.384       .  A
C2104      C2105   1.399       .  A
C2104      N2110   1.340       .  A
C2105      C2106   1.399       .  A
C2106      C2109   1.371       .  A
N2107      C2108   1.356       .  A
C2108      C2109   1.391       .  A
N2110      C2111   1.352       .  A
C2111      C2112   1.395       .  A
C2119      C2124   1.384       .  A
C2119      C2120   1.404       .  A
C2119      N2125   1.343       .  A
C2120      C2121   1.404       .  A
C2121      C2130   1.379       .  A
C2121      C2122   1.384       .  A
C2122      C2123   1.401       .  A
C2122      N2128   1.341       .  A
C2123      C2124   1.399       .  A
C2123      H2132   1.082       .  S
C2124      C2127   1.374       .  A
N2125      C2126   1.356       .  A
C2126      C2127   1.392       .  A
C2127      H2133   1.082       .  S
N2128      C2129   1.354       .  A
N2128      H2136   1.045       .  S
C2129      C2130   1.397       .  A
C2137      C2142   1.383       .  A
C2137      C2138   1.405       .  A
C2137      N2143   1.345       .  A
C2138      C2139   1.405       .  A
C2138      H2149   1.082       .  S
C2139      C2148   1.378       .  A
C2139      C2140   1.384       .  A
C2140      C2141   1.400       .  A
C2140      N2146   1.341       .  A
C2141      C2142   1.400       .  A
C2142      C2145   1.372       .  A
N2143      C2144   1.357       .  A
N2143      H2153   1.044       .  S
C2144      C2145   1.392       .  A
N2146      C2147   1.353       .  A
C2147      C2148   1.397       .  A
C2148      H2152   1.082       .  S
C2155      C2160   1.385       .  A
C2156      H2167   1.083       .  S
C2157      C2158   1.384       .  A
C2158      C2159   1.401       .  A
C2158      N2164   1.342       .  A
C2159      C2160   1.401       .  A
C2159      H2168   1.082       .  S
C2160      C2163   1.376       .  A
N2161      H2171   1.044   1_455  S
C2162      C2163   1.392       .  A
C2163      H2169   1.083       .  S
N2164      C2165   1.353       .  A
N2164      H2172   1.043       .  S
C2166      H2170   1.082   1_455  S
C2173      C2178   1.384       .  A
C2173      C2174   1.401       .  A
C2173      N2179   1.342       .  A
C2174      C2175   1.400       .  A
C2175      C2184   1.376       .  A
C2175      C2176   1.384       .  A
C2176      C2177   1.404       .  A
C2176      N2182   1.343       .  A
C2177      C2178   1.403       .  A
C2177      H2186   1.082       .  S
C2178      C2181   1.378       .  A
N2179      C2180   1.354       .  A
C2180      C2181   1.394       .  A
C2181      H2187   1.082       .  S
N2182      C2183   1.354       .  A
N2182      H2190   1.042       .  S
C2183      C2184   1.394       .  A
C2191      C2196   1.384       .  A
C2191      C2952   1.403   1_545  A
C2191      N2957   1.344       .  A
C2192      C2951   1.403       .  A
C2192      C2953   1.402       .  A
C2192      H2203   1.079       .  S
C2193      C2952   1.402   1_545  A
C2193      C2962   1.378       .  A
C2193      C2194   1.383       .  A
C2194      C2195   1.403       .  A
C2194      N2200   1.342       .  A
C2195      C2196   1.402       .  A
C2195      H2204   1.082       .  S
C2196      C2199   1.376       .  A
N2197      C2951   1.344       .  A
N2197      C2958   1.355       .  A
N2197      H2207   1.044       .  S
C2198      C2199   1.394       .  A
C2198      N2957   1.355       .  A
C2199      H2205   1.083       .  S
N2200      C2201   1.354       .  A
N2200      H2208   1.043       .  S
C2201      C2962   1.397       .  A
C2202      C2953   1.378       .  A
C2202      C2961   1.397       .  A
C2202      H2206   1.082       .  S
C2209      C2214   1.384       .  A
C2209      C2970   1.402   1_545  A
C2209      N2975   1.342       .  A
C2210      C2969   1.402       .  A
C2210      C2971   1.401       .  A
C2210      H2221   1.080       .  S
C2211      C2970   1.401   1_545  A
C2211      C2980   1.377       .  A
C2211      C2212   1.384       .  A
C2212      C2213   1.403       .  A
C2212      N2218   1.342       .  A
C2213      C2214   1.402       .  A
C2213      H2222   1.082       .  S
C2214      C2217   1.378       .  A
N2215      C2969   1.342       .  A
N2215      C2976   1.354       .  A
N2215      H2225   1.044       .  S
C2216      C2217   1.394       .  A
C2216      N2975   1.354       .  A
C2217      H2223   1.082       .  S
N2218      C2219   1.354       .  A
N2218      H2226   1.045       .  S
C2219      C2980   1.394       .  A
C2220      C2971   1.377       .  A
C2220      C2979   1.394       .  A
C2220      H2224   1.082       .  S
C2227      C2232   1.384       .  A
C2227      C2228   1.403       .  A
C2227      N2233   1.342       .  A
C2228      C2229   1.402       .  A
C2228      H2239   1.082       .  S
C2229      C2238   1.376       .  A
C2229      C2230   1.385       .  A
C2230      C2231   1.402       .  A
C2230      N2236   1.344       .  A
C2231      C2232   1.402       .  A
C2231      H2240   1.079       .  S
C2232      C2235   1.377       .  A
N2233      C2234   1.354       .  A
N2233      H2243   1.042       .  S
C2234      C2235   1.395       .  A
C2235      H2241   1.082       .  S
N2236      C2237   1.355       .  A
N2236      H2244   1.044       .  S
C2237      C2238   1.394       .  A
C2238      H2242   1.083       .  S
C2245      C2250   1.384       .  A
C2245      C2246   1.401       .  A
C2245      N2251   1.342       .  A
C2246      C2247   1.400       .  A
C2246      H2257   1.080       .  S
C2247      C2256   1.376       .  A
C2247      C2248   1.384       .  A
C2248      C2249   1.404       .  A
C2248      N2254   1.343       .  A
C2249      C2250   1.403       .  A
C2249      H2258   1.082       .  S
C2250      C2253   1.378       .  A
N2251      C2252   1.355       .  A
N2251      H2261   1.044       .  S
C2252      C2253   1.394       .  A
C2253      H2259   1.082       .  S
N2254      C2255   1.355       .  A
N2254      H2262   1.045       .  S
C2255      C2256   1.395       .  A
C2256      H2260   1.082       .  S
C2263      C2268   1.384       .  A
C2263      C2264   1.405       .  A
C2263      N2269   1.344       .  A
C2264      C2265   1.405       .  A
C2264      H2275   1.083       .  S
C2265      C2274   1.380       .  A
C2265      C2266   1.384       .  A
C2266      C2267   1.400       .  A
C2266      N2272   1.340       .  A
C2267      C2268   1.399       .  A
C2267      H2276   1.082       .  S
C2268      C2271   1.373       .  A
N2269      C2270   1.357       .  A
N2269      H2279   1.044       .  S
C2270      C2271   1.391       .  A
C2271      H2277   1.080       .  S
N2272      C2273   1.353       .  A
N2272      H2280   1.042       .  S
C2273      C2274   1.398       .  A
C2274      H2278   1.082       .  S
C2281      H2282   1.093       .  S
C2281      C2287   1.531       .  S
C2281      C2286   1.531       .  S
C2281      C2285   1.533       .  S
C2283      H2284   1.111       .  S
C2283      C2289   1.559       .  S
C2283      C2288   1.559       .  S
C2283      C2290   1.561       .  S
C2285      C2288   1.372       .  D
C2285      C2429   1.502       .  S
C2286      C2289   1.371       .  D
C2286      C2385   1.507       .  S
C2287      C2290   1.372       .  D
C2287      C2441   1.503       .  S
C2288      C2635   1.475       .  S
C2289      C2614   1.474       .  S
C2290      C2653   1.478       .  S
C2291      C2297   1.534       .  S
C2291      C2296   1.531       .  S
C2291      C2295   1.532       .  S
C2293      H2294   1.111       .  S
C2293      C2299   1.561       .  S
C2293      C2298   1.561       .  S
C2293      C2300   1.559       .  S
C2295      C2298   1.371       .  D
C2296      C2299   1.372       .  D
C2297      C2300   1.371       .  D
C2297      C2416   1.506       .  S
C2298      C2581   1.479       .  S
C2299      C2599   1.471       .  S
C2300      C2650   1.476       .  S
C2301      C2307   1.532       .  S
C2301      C2306   1.532       .  S
C2301      C2305   1.535       .  S
C2303      H2304   1.111       .  S
C2303      C2309   1.561       .  S
C2303      C2308   1.560       .  S
C2303      C2310   1.560       .  S
C2305      C2308   1.370       .  D
C2306      C2309   1.371       .  D
C2307      C2310   1.371       .  D
C2308      C2596   1.473       .  S
C2309      C2542   1.476       .  S
C2310      C2560   1.473       .  S
C2311      C2317   1.531       .  S
C2311      C2316   1.531       .  S
C2311      C2315   1.533       .  S
C2313      H2314   1.111       .  S
C2313      C2319   1.558       .  S
C2313      C2318   1.562       .  S
C2313      C2320   1.561       .  S
C2315      C2318   1.373       .  D
C2315      C2400   1.505       .  S
C2316      C2319   1.369       .  D
C2317      C2320   1.371       .  D
C2318      C2632   1.474       .  S
C2319      C2563   1.474       .  S
C2320      C2527   1.477       .  S
C2321      C2327   1.532       .  S
C2321      C2326   1.535       .  S
C2321      C2325   1.533       .  S
C2323      H2324   1.111       .  S
C2323      C2329   1.560       .  S
C2323      C2328   1.561       .  S
C2323      C2330   1.558       .  S
C2325      C2328   1.374       .  D
C2325      C2781   1.504   1_554  S
C2326      C2329   1.371       .  D
C2327      C2330   1.369       .  D
C2328      C2509   1.476       .  S
C2329      C2524   1.478       .  S
C2330      C2488   1.473       .  S
C2331      H2712   1.093       .  S
C2331      C2337   1.531       .  S
C2331      C2336   1.534       .  S
C2331      C2335   1.532       .  S
H2332      C2711   1.093       .  S
C2333      H2334   1.111       .  S
C2333      C2339   1.557       .  S
C2333      C2338   1.560       .  S
C2333      C2340   1.554       .  S
C2335      C2338   1.373       .  D
C2335      C2373   1.506       .  S
C2336      C2339   1.371       .  D
C2336      C2808   1.506   1_554  S
C2337      C2340   1.370       .  D
C2337      C2824   1.502   1_554  S
C2338      C2617   1.473       .  S
C2339      C2506   1.474       .  S
C2340      C2473   1.470       .  S
C2341      C2347   1.532       .  S
C2341      C2346   1.530       .  S
C2341      C2345   1.535       .  S
C2343      H2344   1.111       .  S
C2343      C2349   1.563       .  S
C2343      C2348   1.560       .  S
C2343      C2350   1.561       .  S
C2345      C2348   1.370       .  D
C2346      C2349   1.371       .  D
C2347      C2350   1.370       .  D
C2348      C2455   1.478       .  S
C2349      C2491   1.470       .  S
C2350      C2545   1.478       .  S
C2351      C2357   1.532       .  S
C2351      C2356   1.533       .  S
C2351      C2355   1.534       .  S
C2353      H2354   1.111       .  S
C2353      C2359   1.560       .  S
C2353      C2358   1.556       .  S
C2353      C2360   1.556       .  S
C2355      C2358   1.369       .  D
C2356      C2359   1.372       .  D
C2357      C2360   1.371       .  D
C2357      C2793   1.507   1_554  S
C2358      C2452   1.474       .  S
C2359      C2578   1.475       .  S
C2360      C2470   1.468       .  S
O2361     Cu2369   1.907       .  S
O2361      C2371   1.264       .  A
O2362     Cu2369   1.912       .  S
O2362      C2372   1.265       .  A
O2363     Cu2369   1.907       .  S
O2363      C2373   1.265       .  A
O2364     Cu2369   1.914       .  S
O2364      C2374   1.265       .  A
O2365     Cu2370   2.106       .  S
O2365      C2374   1.287       .  A
O2366     Cu2370   2.110       .  S
O2366      C2373   1.286       .  A
O2367     Cu2370   2.108       .  S
O2367      C2372   1.287       .  A
O2368     Cu2370   2.108       .  S
O2368      C2371   1.287       .  A
Cu2369    Cu2370   2.331       .  S
O2375     Cu2383   1.916       .  S
O2375      C2385   1.265       .  A
O2376     Cu2383   1.912       .  S
O2376      C2386   1.265       .  A
O2377     Cu2383   1.906       .  S
O2377      C2387   1.264       .  A
O2378     Cu2383   1.907       .  S
O2378      C2388   1.264       .  A
O2379     Cu2384   2.095       .  S
O2379      C2388   1.285       .  A
O2380     Cu2384   2.103       .  S
O2380      C2387   1.286       .  A
O2381     Cu2384   2.104       .  S
O2381      C2386   1.286       .  A
O2382     Cu2384   2.106       .  S
O2382      C2385   1.286       .  A
Cu2383    Cu2384   2.326       .  S
O2389     Cu2397   1.893       .  S
O2389      C2399   1.262       .  A
O2390     Cu2397   1.893       .  S
O2390      C2400   1.262       .  A
O2391     Cu2397   1.900       .  S
O2391      C2401   1.263       .  A
O2392     Cu2397   1.904       .  S
O2392      C2402   1.263       .  A
O2393     Cu2398   2.118       .  S
O2393      C2402   1.288       .  A
O2394     Cu2398   2.105       .  S
O2394      C2401   1.285       .  A
O2395     Cu2398   2.110       .  S
O2395      C2400   1.287       .  A
O2396     Cu2398   2.104       .  S
O2396      C2399   1.286       .  A
Cu2397    Cu2398   2.335       .  S
C2401      C2705   1.504       .  S
O2403     Cu2411   1.914       .  S
O2403      C2413   1.265       .  A
O2404     Cu2411   1.910       .  S
O2404      C2414   1.265       .  A
O2405     Cu2411   1.906       .  S
O2405      C2415   1.263       .  A
O2406     Cu2411   1.910       .  S
O2406      C2416   1.264       .  A
O2407     Cu2412   2.108       .  S
O2407      C2416   1.287       .  A
O2408     Cu2412   2.110       .  S
O2408      C2415   1.287       .  A
O2409     Cu2412   2.108       .  S
O2409      C2414   1.286       .  A
O2410     Cu2412   2.111       .  S
O2410      C2413   1.287       .  A
Cu2411    Cu2412   2.323       .  S
C2413      C2737   1.507       .  S
O2417     Cu2425   1.900       .  S
O2417      C2427   1.263       .  A
O2418     Cu2425   1.905       .  S
O2418      C2428   1.264       .  A
O2419     Cu2425   1.892       .  S
O2419      C2429   1.262       .  A
O2420     Cu2425   1.897       .  S
O2420      C2430   1.263       .  A
O2421     Cu2426   2.102       .  S
O2421      C2430   1.286       .  A
O2422     Cu2426   2.105       .  S
O2422      C2429   1.286       .  A
O2423     Cu2426   2.109       .  S
O2423      C2428   1.286       .  A
O2424     Cu2426   2.108       .  S
O2424      C2427   1.286       .  A
Cu2425    Cu2426   2.337       .  S
C2428      C2716   1.506       .  S
O2431     Cu2439   1.916       .  S
O2431      C2441   1.266       .  A
O2432     Cu2439   1.912       .  S
O2432      C2442   1.265       .  A
O2433     Cu2439   1.917       .  S
O2433      C2443   1.265       .  A
O2434     Cu2439   1.911       .  S
O2434      C2444   1.264       .  A
O2435     Cu2440   2.101       .  S
O2435      C2444   1.286       .  A
O2436     Cu2440   2.101       .  S
O2436      C2443   1.286       .  A
O2437     Cu2440   2.106       .  S
O2437      C2442   1.287       .  A
O2438     Cu2440   2.099       .  S
O2438      C2441   1.285       .  A
Cu2439    Cu2440   2.322       .  S
C2444      C2717   1.502       .  S
C2445      C2450   1.385       .  A
C2445      C2826   1.406   1_554  A
C2445      N2451   1.345       .  A
C2446      C2825   1.406       .  A
C2446      C2827   1.405       .  A
C2447      C2826   1.405   1_554  A
C2447      C2456   1.380       .  A
C2447      C2448   1.384       .  A
C2448      C2449   1.401       .  A
C2448      N2454   1.342       .  A
C2449      C2450   1.400       .  A
C2449      H2458   1.082       .  S
C2450      C2453   1.375       .  A
N2451      C2452   1.357       .  A
C2452      C2453   1.391       .  A
C2453      H2459   1.082       .  S
N2454      C2455   1.353       .  A
N2454      H2462   1.043       .  S
C2455      C2456   1.397       .  A
C2463      C2468   1.385       .  A
C2463      C2464   1.400       .  A
C2463      N2469   1.341       .  A
C2464      C2465   1.399       .  A
C2464      H2855   1.082       .  S
C2465      C2474   1.373       .  A
C2465      C2466   1.385       .  A
C2466      C2467   1.402       .  A
C2466      N2472   1.341       .  A
C2467      C2468   1.401       .  A
C2467      H2476   1.083       .  S
C2468      C2471   1.374       .  A
N2469      C2470   1.353       .  A
N2469      H2479   1.044       .  S
C2470      C2471   1.393       .  A
C2471      H2477   1.083       .  S
N2472      C2473   1.354       .  A
N2472      H2480   1.045       .  S
C2473      C2474   1.393       .  A
C2474      H2478   1.082       .  S
H2475      C2844   1.082       .  S
C2481      C2486   1.383       .  A
C2481      C2482   1.402   1_554  A
C2481      N2487   1.343       .  A
C2482      C2483   1.402   1_556  A
C2482      H2873   1.079       .  S
C2483      C2492   1.376   1_554  A
C2483      C2484   1.384       .  A
C2484      C2485   1.399       .  A
C2484      N2490   1.340       .  A
C2485      C2486   1.399       .  A
C2486      C2489   1.371       .  A
N2487      C2488   1.356       .  A
N2487      H2877   1.044   1_554  S
C2488      C2489   1.391       .  A
N2490      C2491   1.352       .  A
C2491      C2492   1.395   1_554  A
C2492      H2876   1.082       .  S
H2493      C2862   1.079       .  S
H2496      C2872   1.082       .  S
H2497      N2867   1.044       .  S
C2499      C2504   1.384       .  A
C2499      C2500   1.404   1_554  A
C2499      N2505   1.343       .  A
C2500      C2501   1.404   1_556  A
C2500      H2891   1.083       .  S
C2501      C2510   1.379       .  A
C2501      C2502   1.384       .  A
C2502      C2503   1.401       .  A
C2502      N2508   1.341       .  A
C2503      C2504   1.399       .  A
C2503      H2512   1.082       .  S
C2504      C2507   1.374       .  A
N2505      C2506   1.356       .  A
N2505      H2895   1.044   1_554  S
C2506      C2507   1.392       .  A
C2507      H2513   1.082       .  S
N2508      C2509   1.354       .  A
N2508      H2516   1.045       .  S
C2509      C2510   1.397       .  A
C2510      H2894   1.082   1_554  S
H2511      C2880   1.083       .  S
H2514      C2890   1.082       .  S
H2515      N2885   1.044       .  S
C2517      C2522   1.383       .  A
C2517      C2518   1.405       .  A
C2517      N2523   1.345       .  A
C2518      C2519   1.405       .  A
C2518      H2529   1.082       .  S
C2519      C2528   1.378       .  A
C2519      C2520   1.384       .  A
C2520      C2521   1.400       .  A
C2520      N2526   1.341       .  A
C2521      C2522   1.400       .  A
C2522      C2525   1.372       .  A
N2523      C2524   1.357       .  A
N2523      H2533   1.044       .  S
C2524      C2525   1.392       .  A
N2526      C2527   1.353       .  A
C2527      C2528   1.397       .  A
C2528      H2532   1.082       .  S
C2535      C2540   1.385       .  A
C2536      H2547   1.083       .  S
C2537      C2538   1.384       .  A
C2538      C2539   1.401       .  A
C2538      N2544   1.342       .  A
C2539      C2540   1.401       .  A
C2539      H2548   1.082       .  S
C2540      C2543   1.376       .  A
N2541      H2551   1.044   1_455  S
C2542      C2543   1.392       .  A
C2543      H2549   1.083       .  S
N2544      C2545   1.353       .  A
N2544      H2552   1.043       .  S
C2546      H2550   1.082   1_455  S
C2553      C2558   1.384       .  A
C2553      C2554   1.401       .  A
C2553      N2559   1.342       .  A
C2554      C2555   1.400       .  A
C2555      C2564   1.376       .  A
C2555      C2556   1.384       .  A
C2556      C2557   1.404       .  A
C2556      N2562   1.343       .  A
C2557      C2558   1.403       .  A
C2557      H2566   1.082       .  S
C2558      C2561   1.378       .  A
N2559      C2560   1.354       .  A
C2560      C2561   1.394       .  A
C2561      H2567   1.082       .  S
N2562      C2563   1.354       .  A
N2562      H2570   1.042       .  S
C2563      C2564   1.394       .  A
C2571      C2576   1.384       .  A
C2572      H2583   1.079       .  S
C2573      C2574   1.383       .  A
C2574      C2575   1.403       .  A
C2574      N2580   1.342       .  A
C2575      C2576   1.402       .  A
C2575      H2584   1.082       .  S
C2576      C2579   1.376       .  A
N2577      H2587   1.044   1_545  S
C2578      C2579   1.394       .  A
C2579      H2585   1.083       .  S
N2580      C2581   1.354       .  A
N2580      H2588   1.043       .  S
C2582      H2586   1.082   1_545  S
C2589      C2594   1.384       .  A
C2590      H2601   1.080       .  S
C2591      C2592   1.384       .  A
C2592      C2593   1.403       .  A
C2592      N2598   1.342       .  A
C2593      C2594   1.402       .  A
C2593      H2602   1.082       .  S
C2594      C2597   1.378       .  A
N2595      H2605   1.044   1_545  S
C2596      C2597   1.394       .  A
C2597      H2603   1.082       .  S
N2598      C2599   1.354       .  A
N2598      H2606   1.045       .  S
C2600      H2604   1.082   1_545  S
C2607      C2612   1.384       .  A
C2607      C2608   1.403       .  A
C2607      N2613   1.342       .  A
C2608      C2609   1.402       .  A
C2608      H2619   1.082       .  S
C2609      C2618   1.376       .  A
C2609      C2610   1.385       .  A
C2610      C2611   1.402       .  A
C2610      N2616   1.344       .  A
C2611      C2612   1.402       .  A
C2611      H2620   1.079       .  S
C2612      C2615   1.377       .  A
N2613      C2614   1.354       .  A
N2613      H2623   1.042       .  S
C2614      C2615   1.395       .  A
C2615      H2621   1.082       .  S
N2616      C2617   1.355       .  A
N2616      H2624   1.044       .  S
C2617      C2618   1.394       .  A
C2618      H2622   1.083       .  S
C2625      C2630   1.384       .  A
C2625      C2626   1.401       .  A
C2625      N2631   1.342       .  A
C2626      C2627   1.400       .  A
C2626      H2637   1.080       .  S
C2627      C2636   1.376       .  A
C2627      C2628   1.384       .  A
C2628      C2629   1.404       .  A
C2628      N2634   1.343       .  A
C2629      C2630   1.403       .  A
C2629      H2638   1.082       .  S
C2630      C2633   1.378       .  A
N2631      C2632   1.355       .  A
N2631      H2641   1.044       .  S
C2632      C2633   1.394       .  A
C2633      H2639   1.082       .  S
N2634      C2635   1.355       .  A
N2634      H2642   1.045       .  S
C2635      C2636   1.395       .  A
C2636      H2640   1.082       .  S
C2643      C2648   1.384       .  A
C2643      C2644   1.405       .  A
C2643      N2649   1.344       .  A
C2644      C2645   1.405       .  A
C2644      H2655   1.083       .  S
C2645      C2654   1.380       .  A
C2645      C2646   1.384       .  A
C2646      C2647   1.400       .  A
C2646      N2652   1.340       .  A
C2647      C2648   1.399       .  A
C2647      H2656   1.082       .  S
C2648      C2651   1.373       .  A
N2649      C2650   1.357       .  A
N2649      H2659   1.044       .  S
C2650      C2651   1.391       .  A
C2651      H2657   1.080       .  S
N2652      C2653   1.353       .  A
N2652      H2660   1.042       .  S
C2653      C2654   1.398       .  A
C2654      H2658   1.082       .  S
C2661      H2662   1.093       .  S
C2661      C2667   1.531       .  S
C2661      C2666   1.531       .  S
C2661      C2665   1.533       .  S
C2663      H2664   1.111       .  S
C2663      C2669   1.559       .  S
C2663      C2668   1.559       .  S
C2663      C2670   1.561       .  S
C2665      C2668   1.372       .  D
C2665      C2809   1.502       .  S
C2666      C2669   1.371       .  D
C2666      C2765   1.507       .  S
C2667      C2670   1.372       .  D
C2667      C2821   1.503       .  S
C2668      C3015   1.475       .  S
C2669      C2994   1.474       .  S
C2670      C3033   1.478       .  S
C2671      C2677   1.534       .  S
C2671      C2676   1.531       .  S
C2671      C2675   1.532       .  S
C2673      H2674   1.111       .  S
C2673      C2679   1.561       .  S
C2673      C2678   1.561       .  S
C2673      C2680   1.559       .  S
C2675      C2678   1.371       .  D
C2676      C2679   1.372       .  D
C2677      C2680   1.371       .  D
C2677      C2796   1.506       .  S
C2678      C2961   1.479       .  S
C2679      C2979   1.471       .  S
C2680      C3030   1.476       .  S
C2681      C2687   1.532       .  S
C2681      C2686   1.532       .  S
C2681      C2685   1.535       .  S
C2683      H2684   1.111       .  S
C2683      C2689   1.561       .  S
C2683      C2688   1.560       .  S
C2683      C2690   1.560       .  S
C2685      C2688   1.370       .  D
C2686      C2689   1.371       .  D
C2687      C2690   1.371       .  D
C2688      C2976   1.473       .  S
C2689      C2922   1.476       .  S
C2690      C2940   1.473       .  S
C2691      C2697   1.531       .  S
C2691      C2696   1.531       .  S
C2691      C2695   1.533       .  S
C2693      H2694   1.111       .  S
C2693      C2699   1.558       .  S
C2693      C2698   1.562       .  S
C2693      C2700   1.561       .  S
C2695      C2698   1.373       .  D
C2695      C2780   1.505       .  S
C2696      C2699   1.369       .  D
C2697      C2700   1.371       .  D
C2698      C3012   1.474       .  S
C2699      C2943   1.474       .  S
C2700      C2907   1.477       .  S
C2701      C2707   1.532       .  S
C2701      C2706   1.535       .  S
C2701      C2705   1.533       .  S
C2703      H2704   1.111       .  S
C2703      C2709   1.560       .  S
C2703      C2708   1.561       .  S
C2703      C2710   1.558       .  S
C2705      C2708   1.374       .  D
C2706      C2709   1.371       .  D
C2707      C2710   1.369       .  D
C2708      C2889   1.476       .  S
C2709      C2904   1.478       .  S
C2710      C2868   1.473       .  S
C2711      C2717   1.531       .  S
C2711      C2716   1.534       .  S
C2711      C2715   1.532       .  S
C2713      H2714   1.111       .  S
C2713      C2719   1.557       .  S
C2713      C2718   1.560       .  S
C2713      C2720   1.554       .  S
C2715      C2718   1.373       .  D
C2715      C2753   1.506       .  S
C2716      C2719   1.371       .  D
C2717      C2720   1.370       .  D
C2718      C2997   1.473       .  S
C2719      C2886   1.474       .  S
C2720      C2853   1.470       .  S
C2721      C2727   1.532       .  S
C2721      C2726   1.530       .  S
C2721      C2725   1.535       .  S
C2723      H2724   1.111       .  S
C2723      C2729   1.563       .  S
C2723      C2728   1.560       .  S
C2723      C2730   1.561       .  S
C2725      C2728   1.370       .  D
C2726      C2729   1.371       .  D
C2727      C2730   1.370       .  D
C2728      C2835   1.478       .  S
C2729      C2871   1.470       .  S
C2730      C2925   1.478       .  S
C2731      C2737   1.532       .  S
C2731      C2736   1.533       .  S
C2731      C2735   1.534       .  S
C2733      H2734   1.111       .  S
C2733      C2739   1.560       .  S
C2733      C2738   1.556       .  S
C2733      C2740   1.556       .  S
C2735      C2738   1.369       .  D
C2736      C2739   1.372       .  D
C2737      C2740   1.371       .  D
C2738      C2832   1.474       .  S
C2739      C2958   1.475       .  S
C2740      C2850   1.468       .  S
O2741     Cu2749   1.907       .  S
O2741      C2751   1.264       .  A
O2742     Cu2749   1.912       .  S
O2742      C2752   1.265       .  A
O2743     Cu2749   1.907       .  S
O2743      C2753   1.265       .  A
O2744     Cu2749   1.914       .  S
O2744      C2754   1.265       .  A
O2745     Cu2750   2.106       .  S
O2745      C2754   1.287       .  A
O2746     Cu2750   2.110       .  S
O2746      C2753   1.286       .  A
O2747     Cu2750   2.108       .  S
O2747      C2752   1.287       .  A
O2748     Cu2750   2.108       .  S
O2748      C2751   1.287       .  A
Cu2749    Cu2750   2.331       .  S
O2755     Cu2763   1.916       .  S
O2755      C2765   1.265       .  A
O2756     Cu2763   1.912       .  S
O2756      C2766   1.265       .  A
O2757     Cu2763   1.906       .  S
O2757      C2767   1.264       .  A
O2758     Cu2763   1.907       .  S
O2758      C2768   1.264       .  A
O2759     Cu2764   2.095       .  S
O2759      C2768   1.285       .  A
O2760     Cu2764   2.103       .  S
O2760      C2767   1.286       .  A
O2761     Cu2764   2.104       .  S
O2761      C2766   1.286       .  A
O2762     Cu2764   2.106       .  S
O2762      C2765   1.286       .  A
Cu2763    Cu2764   2.326       .  S
O2769     Cu2777   1.893       .  S
O2769      C2779   1.262       .  A
O2770     Cu2777   1.893       .  S
O2770      C2780   1.262       .  A
O2771     Cu2777   1.900       .  S
O2771      C2781   1.263       .  A
O2772     Cu2777   1.904       .  S
O2772      C2782   1.263       .  A
O2773     Cu2778   2.118       .  S
O2773      C2782   1.288       .  A
O2774     Cu2778   2.105       .  S
O2774      C2781   1.285       .  A
O2775     Cu2778   2.110       .  S
O2775      C2780   1.287       .  A
O2776     Cu2778   2.104       .  S
O2776      C2779   1.286       .  A
Cu2777    Cu2778   2.335       .  S
O2783     Cu2791   1.914       .  S
O2783      C2793   1.265       .  A
O2784     Cu2791   1.910       .  S
O2784      C2794   1.265       .  A
O2785     Cu2791   1.906       .  S
O2785      C2795   1.263       .  A
O2786     Cu2791   1.910       .  S
O2786      C2796   1.264       .  A
O2787     Cu2792   2.108       .  S
O2787      C2796   1.287       .  A
O2788     Cu2792   2.110       .  S
O2788      C2795   1.287       .  A
O2789     Cu2792   2.108       .  S
O2789      C2794   1.286       .  A
O2790     Cu2792   2.111       .  S
O2790      C2793   1.287       .  A
Cu2791    Cu2792   2.323       .  S
O2797     Cu2805   1.900       .  S
O2797      C2807   1.263       .  A
O2798     Cu2805   1.905       .  S
O2798      C2808   1.264       .  A
O2799     Cu2805   1.892       .  S
O2799      C2809   1.262       .  A
O2800     Cu2805   1.897       .  S
O2800      C2810   1.263       .  A
O2801     Cu2806   2.102       .  S
O2801      C2810   1.286       .  A
O2802     Cu2806   2.105       .  S
O2802      C2809   1.286       .  A
O2803     Cu2806   2.109       .  S
O2803      C2808   1.286       .  A
O2804     Cu2806   2.108       .  S
O2804      C2807   1.286       .  A
Cu2805    Cu2806   2.337       .  S
O2811     Cu2819   1.916       .  S
O2811      C2821   1.266       .  A
O2812     Cu2819   1.912       .  S
O2812      C2822   1.265       .  A
O2813     Cu2819   1.917       .  S
O2813      C2823   1.265       .  A
O2814     Cu2819   1.911       .  S
O2814      C2824   1.264       .  A
O2815     Cu2820   2.101       .  S
O2815      C2824   1.286       .  A
O2816     Cu2820   2.101       .  S
O2816      C2823   1.286       .  A
O2817     Cu2820   2.106       .  S
O2817      C2822   1.287       .  A
O2818     Cu2820   2.099       .  S
O2818      C2821   1.285       .  A
Cu2819    Cu2820   2.322       .  S
C2825      C2830   1.385       .  A
C2825      N2831   1.345       .  A
C2827      C2836   1.380       .  A
C2827      C2828   1.384       .  A
C2828      C2829   1.401       .  A
C2828      N2834   1.342       .  A
C2829      C2830   1.400       .  A
C2829      H2838   1.082       .  S
C2830      C2833   1.375       .  A
N2831      C2832   1.357       .  A
C2832      C2833   1.391       .  A
C2833      H2839   1.082       .  S
N2834      C2835   1.353       .  A
N2834      H2842   1.043       .  S
C2835      C2836   1.397       .  A
C2843      C2848   1.385       .  A
C2843      C2844   1.400       .  A
C2843      N2849   1.341       .  A
C2844      C2845   1.399       .  A
C2845      C2854   1.373       .  A
C2845      C2846   1.385       .  A
C2846      C2847   1.402       .  A
C2846      N2852   1.341       .  A
C2847      C2848   1.401       .  A
C2847      H2856   1.083       .  S
C2848      C2851   1.374       .  A
N2849      C2850   1.353       .  A
N2849      H2859   1.044       .  S
C2850      C2851   1.393       .  A
C2851      H2857   1.083       .  S
N2852      C2853   1.354       .  A
N2852      H2860   1.045       .  S
C2853      C2854   1.393       .  A
C2854      H2858   1.082       .  S
C2861      C2866   1.383       .  A
C2861      C2862   1.402       .  A
C2861      N2867   1.343       .  A
C2862      C2863   1.402       .  A
C2863      C2872   1.376       .  A
C2863      C2864   1.384       .  A
C2864      C2865   1.399       .  A
C2864      N2870   1.340       .  A
C2865      C2866   1.399       .  A
C2866      C2869   1.371       .  A
N2867      C2868   1.356       .  A
C2868      C2869   1.391       .  A
N2870      C2871   1.352       .  A
C2871      C2872   1.395       .  A
C2879      C2884   1.384       .  A
C2879      C2880   1.404       .  A
C2879      N2885   1.343       .  A
C2880      C2881   1.404       .  A
C2881      C2890   1.379       .  A
C2881      C2882   1.384       .  A
C2882      C2883   1.401       .  A
C2882      N2888   1.341       .  A
C2883      C2884   1.399       .  A
C2883      H2892   1.082       .  S
C2884      C2887   1.374       .  A
N2885      C2886   1.356       .  A
C2886      C2887   1.392       .  A
C2887      H2893   1.082       .  S
N2888      C2889   1.354       .  A
N2888      H2896   1.045       .  S
C2889      C2890   1.397       .  A
C2897      C2902   1.383       .  A
C2897      C2898   1.405       .  A
C2897      N2903   1.345       .  A
C2898      C2899   1.405       .  A
C2898      H2909   1.082       .  S
C2899      C2908   1.378       .  A
C2899      C2900   1.384       .  A
C2900      C2901   1.400       .  A
C2900      N2906   1.341       .  A
C2901      C2902   1.400       .  A
C2902      C2905   1.372       .  A
N2903      C2904   1.357       .  A
N2903      H2913   1.044       .  S
C2904      C2905   1.392       .  A
N2906      C2907   1.353       .  A
C2907      C2908   1.397       .  A
C2908      H2912   1.082       .  S
C2915      C2920   1.385       .  A
C2916      H2927   1.083       .  S
C2917      C2918   1.384       .  A
C2918      C2919   1.401       .  A
C2918      N2924   1.342       .  A
C2919      C2920   1.401       .  A
C2919      H2928   1.082       .  S
C2920      C2923   1.376       .  A
N2921      H2931   1.044   1_455  S
C2922      C2923   1.392       .  A
C2923      H2929   1.083       .  S
N2924      C2925   1.353       .  A
N2924      H2932   1.043       .  S
C2926      H2930   1.082   1_455  S
C2933      C2938   1.384       .  A
C2933      C2934   1.401       .  A
C2933      N2939   1.342       .  A
C2934      C2935   1.400       .  A
C2935      C2944   1.376       .  A
C2935      C2936   1.384       .  A
C2936      C2937   1.404       .  A
C2936      N2942   1.343       .  A
C2937      C2938   1.403       .  A
C2937      H2946   1.082       .  S
C2938      C2941   1.378       .  A
N2939      C2940   1.354       .  A
C2940      C2941   1.394       .  A
C2941      H2947   1.082       .  S
N2942      C2943   1.354       .  A
N2942      H2950   1.042       .  S
C2943      C2944   1.394       .  A
C2951      C2956   1.384       .  A
C2952      H2963   1.079       .  S
C2953      C2954   1.383       .  A
C2954      C2955   1.403       .  A
C2954      N2960   1.342       .  A
C2955      C2956   1.402       .  A
C2955      H2964   1.082       .  S
C2956      C2959   1.376       .  A
N2957      H2967   1.044   1_545  S
C2958      C2959   1.394       .  A
C2959      H2965   1.083       .  S
N2960      C2961   1.354       .  A
N2960      H2968   1.043       .  S
C2962      H2966   1.082   1_545  S
C2969      C2974   1.384       .  A
C2970      H2981   1.080       .  S
C2971      C2972   1.384       .  A
C2972      C2973   1.403       .  A
C2972      N2978   1.342       .  A
C2973      C2974   1.402       .  A
C2973      H2982   1.082       .  S
C2974      C2977   1.378       .  A
N2975      H2985   1.044   1_545  S
C2976      C2977   1.394       .  A
C2977      H2983   1.082       .  S
N2978      C2979   1.354       .  A
N2978      H2986   1.045       .  S
C2980      H2984   1.082   1_545  S
C2987      C2992   1.384       .  A
C2987      C2988   1.403       .  A
C2987      N2993   1.342       .  A
C2988      C2989   1.402       .  A
C2988      H2999   1.082       .  S
C2989      C2998   1.376       .  A
C2989      C2990   1.385       .  A
C2990      C2991   1.402       .  A
C2990      N2996   1.344       .  A
C2991      C2992   1.402       .  A
C2991      H3000   1.079       .  S
C2992      C2995   1.377       .  A
N2993      C2994   1.354       .  A
N2993      H3003   1.042       .  S
C2994      C2995   1.395       .  A
C2995      H3001   1.082       .  S
N2996      C2997   1.355       .  A
N2996      H3004   1.044       .  S
C2997      C2998   1.394       .  A
C2998      H3002   1.083       .  S
C3005      C3010   1.384       .  A
C3005      C3006   1.401       .  A
C3005      N3011   1.342       .  A
C3006      C3007   1.400       .  A
C3006      H3017   1.080       .  S
C3007      C3016   1.376       .  A
C3007      C3008   1.384       .  A
C3008      C3009   1.404       .  A
C3008      N3014   1.343       .  A
C3009      C3010   1.403       .  A
C3009      H3018   1.082       .  S
C3010      C3013   1.378       .  A
N3011      C3012   1.355       .  A
N3011      H3021   1.044       .  S
C3012      C3013   1.394       .  A
C3013      H3019   1.082       .  S
N3014      C3015   1.355       .  A
N3014      H3022   1.045       .  S
C3015      C3016   1.395       .  A
C3016      H3020   1.082       .  S
C3023      C3028   1.384       .  A
C3023      C3024   1.405       .  A
C3023      N3029   1.344       .  A
C3024      C3025   1.405       .  A
C3024      H3035   1.083       .  S
C3025      C3034   1.380       .  A
C3025      C3026   1.384       .  A
C3026      C3027   1.400       .  A
C3026      N3032   1.340       .  A
C3027      C3028   1.399       .  A
C3027      H3036   1.082       .  S
C3028      C3031   1.373       .  A
N3029      C3030   1.357       .  A
N3029      H3039   1.044       .  S
C3030      C3031   1.391       .  A
C3031      H3037   1.080       .  S
N3032      C3033   1.353       .  A
N3032      H3040   1.042       .  S
C3033      C3034   1.398       .  A
C3034      H3038   1.082       .  S
