geometry optimzed in LAMMPS
_audit_creation_date              2020-11-30 
_audit_creation_method            'lammps2cif' 
_symmetry_space_group_name_H-M    'P1' 
_symmetry_Int_Tables_number       1 
_symmetry_cell_setting            triclinic 
loop_ 
_symmetry_equiv_pos_as_xyz 
  x,y,z 
_cell_length_a                    33.22546616633517 
_cell_length_b                    33.12417006481253 
_cell_length_c                    33.24132591157026 
_cell_angle_alpha                 90.18631095315217 
_cell_angle_beta                  91.3234338816951 
_cell_angle_gamma                 90.00627217893638 
loop_ 
_atom_site_label 
_atom_site_type_symbol 
_atom_site_fract_x 
_atom_site_fract_y 
_atom_site_fract_z 
_atom_site_charge 
C1          C  0.87594956  0.27037624  0.49636159    -0.02150
C2          C  0.86859297  0.51175820  0.26048461    -0.02150
C3          C  0.87950751  0.50504573  0.74944255    -0.02150
C4          C  0.87291671  0.75352547  0.49680343    -0.02150
O5          O  0.84745917  0.57612654  0.51815622    -0.72610
O6          O  0.85495680  0.45835480  0.51301677    -0.73590
O7          O  0.85644335  0.52033978  0.45688816    -0.62210
O8          O  0.84688731  0.51433828  0.57456092    -0.70620
O9          O  0.78011716  0.51131571  0.56924583    -0.70170
O10         O  0.79050497  0.51600682  0.44686779    -0.61430
O11         O  0.78831791  0.45335481  0.50621126    -0.73940
O12         O  0.78082407  0.57390419  0.50949942    -0.72720
Cu13       Cu  0.85345652  0.51744807  0.51608443     1.04560
Cu14       Cu  0.78225745  0.51350783  0.50789908     1.04330
C15         C  0.81368068  0.59363016  0.51278445     0.93590
C16         C  0.82317336  0.43726959  0.50833600     0.92730
C17         C  0.82601080  0.51924006  0.43281531     0.84870
C18         C  0.81267399  0.51155652  0.59068350     0.91140
C19         C  0.26127293  0.88967455  0.50297117    -0.02150
C20         C  0.50338108  0.88142071  0.26117961    -0.02150
C21         C  0.50086774  0.88167541  0.74437948    -0.02150
C22         C  0.74229900  0.87942292  0.49525513    -0.02150
O23         O  0.44630329  0.86070654  0.51298533    -0.72610
O24         O  0.56365929  0.85429790  0.50753260    -0.73590
O25         O  0.50092877  0.86309147  0.45140416    -0.62210
O26         O  0.50836517  0.85258157  0.56874040    -0.70620
O27         O  0.50196096  0.78579056  0.56480711    -0.70170
O28         O  0.49936935  0.79644201  0.44354801    -0.61430
O29         O  0.56152071  0.78724148  0.50368993    -0.73940
O30         O  0.44006197  0.79437725  0.50451998    -0.72720
Cu31       Cu  0.50509680  0.85971232  0.51036540     1.04560
Cu32       Cu  0.50071399  0.78825353  0.50394003     1.04330
C33         C  0.42445738  0.82921516  0.50983245     0.93590
C34         C  0.58125824  0.82034381  0.50448453     0.92730
C35         C  0.49867813  0.83207095  0.42877732     0.84870
C36         C  0.50484061  0.81833890  0.58545636     0.91140
C37         C  0.49287298  0.26771218  0.86515605    -0.02150
C38         C  0.26455502  0.50730948  0.86915931    -0.02150
C39         C  0.75503254  0.51068471  0.87782019    -0.02150
C40         C  0.50164861  0.75601662  0.87514669    -0.02150
O41         O  0.51742209  0.44134910  0.84319879    -0.72610
O42         O  0.51890138  0.55853814  0.86266156    -0.73590
O43         O  0.45939445  0.49948609  0.85708377    -0.62210
O44         O  0.57657144  0.49962215  0.84920287    -0.70620
O45         O  0.57308482  0.51020493  0.78323863    -0.70170
O46         O  0.45051955  0.50997928  0.79176628    -0.61430
O47         O  0.51274430  0.57058445  0.79736517    -0.73940
O48         O  0.51069129  0.45007231  0.77707444    -0.72720
Cu49       Cu  0.51837554  0.49953657  0.85496914     1.04560
Cu50       Cu  0.51167215  0.51076931  0.78470026     1.04330
C51         C  0.51271093  0.42703393  0.80781050     0.93590
C52         C  0.51589708  0.58345217  0.83366114     0.92730
C53         C  0.43589195  0.50389493  0.82659198     0.84870
C54         C  0.59365188  0.50387419  0.81566341     0.91140
C55         C  0.37075231  0.00761795  0.75815883    -0.02150
C56         C  0.36943342  0.77338600  0.99657520    -0.02150
C57         C  0.37600059  0.25993853  0.99559289    -0.02150
C58         C  0.37932467  0.01107930  0.24128590    -0.02150
O59         O  0.27548348  0.95508567  0.99803090    -0.72610
O60         O  0.28746745  0.07710323  0.00452692    -0.73590
O61         O  0.28708119  0.01780161  0.94068580    -0.62210
O62         O  0.27547236  0.01386767  0.06225206    -0.70620
O63         O  0.34208388  0.00800722  0.06651601    -0.70170
O64         O  0.35294273  0.01029189  0.95049341    -0.61430
O65         O  0.35363758  0.06824965  0.01075218    -0.73940
O66         O  0.34188634  0.94996397  0.00614536    -0.72720
Cu67       Cu  0.27866573  0.01642560  0.00119688     1.04560
Cu68       Cu  0.34959159  0.00909632  0.00884721     1.04330
C69         C  0.30749521  0.93365634  0.00064825     0.93590
C70         C  0.32317165  0.09142325  0.00774873     0.92730
C71         C  0.32241972  0.01309244  0.92683239     0.84870
C72         C  0.30796940  0.00931859  0.08310326     0.91140
C73         C  0.00471200  0.63592651  0.75308832    -0.02150
C74         C  0.75302756  0.63875705  0.00442993    -0.02150
C75         C  0.25199193  0.63384142  0.00071312    -0.02150
C76         C  0.99750912  0.63916171  0.24295024    -0.02150
O77         O  0.94076630  0.71906131  0.99863647    -0.72610
O78         O  0.06445604  0.71187046  0.99864901    -0.73590
O79         O  0.00265353  0.71816781  0.93794607    -0.62210
O80         O  0.00391502  0.71644473  0.05813477    -0.70620
O81         O  0.99800747  0.64954713  0.05671908    -0.70170
O82         O  0.99760415  0.65122755  0.93701464    -0.61430
O83         O  0.05587546  0.64574153  0.99774906    -0.73940
O84         O  0.93923049  0.65205026  0.99668188    -0.72720
Cu85       Cu  0.00303166  0.71908062  0.99819742     1.04560
Cu86       Cu  0.99760542  0.64760335  0.99683556     1.04330
C87         C  0.92113843  0.68561820  0.99957816     0.93590
C88         C  0.07920226  0.67605436  0.99850036     0.92730
C89         C  0.00067950  0.68487628  0.91870207     0.84870
C90         C  0.00076857  0.68276967  0.07615260     0.91140
C91         C  0.62256383  0.76541598  0.00936651    -0.02150
C92         C  0.62497478  0.01293911  0.75086208    -0.02150
C93         C  0.61875061  0.26258559  0.99828616    -0.02150
C94         C  0.62573285  0.00980591  0.24973576    -0.02150
O95         O  0.63570436  0.06759614  0.99908314    -0.72610
O96         O  0.64199099  0.95010447  0.99805181    -0.73590
O97         O  0.63695985  0.00778434  0.05777829    -0.62210
O98         O  0.64014593  0.01003320  0.94033839    -0.70620
O99         O  0.70662934  0.01515367  0.93950586    -0.70170
O100        O  0.70342240  0.01338406  0.06287905    -0.61430
O101        O  0.70883440  0.95206048  0.00098774    -0.73940
O102        O  0.70185636  0.07560417  0.00097616    -0.72720
Cu103      Cu  0.63689015  0.00874208  0.99862696     1.04560
Cu104      Cu  0.70802154  0.01406455  0.00117768     1.04330
C105        C  0.66638368  0.09069801  0.99967691     0.93590
C106        C  0.67574908  0.93212920  0.00064902     0.92730
C107        C  0.66905088  0.00954420  0.07933195     0.84870
C108        C  0.67239599  0.01472175  0.92096853     0.91140
C109        C  0.25554223  0.50568304  0.12918818    -0.02150
C110        C  0.50163767  0.27585409  0.12953483    -0.02150
C111        C  0.49254364  0.75932139  0.12700758    -0.02150
C112        C  0.73934553  0.50796402  0.12995632    -0.02150
O113        O  0.50131524  0.45556672  0.22457588    -0.72610
O114        O  0.49198157  0.57628623  0.21066225    -0.73590
O115        O  0.43606653  0.51144190  0.22351474    -0.62210
O116        O  0.55727139  0.51940709  0.21104511    -0.70620
O117        O  0.54568984  0.51562581  0.14527401    -0.70170
O118        O  0.43149993  0.50087818  0.15746003    -0.61430
O119        O  0.48028136  0.56687323  0.14525648    -0.73940
O120        O  0.49653222  0.44982249  0.15794833    -0.72720
Cu121      Cu  0.49691874  0.51622905  0.22019492     1.04560
Cu122      Cu  0.48824700  0.50819087  0.14953257     1.04330
C123        C  0.50082215  0.43399282  0.19265502     0.93590
C124        C  0.48421051  0.59030933  0.17551075     0.92730
C125        C  0.41534450  0.50315262  0.19161010     0.84870
C126        C  0.57019276  0.51758049  0.17508332     0.91140
C127        C  0.75673202  0.38159816  0.00636600    -0.02150
C128        C  0.00773328  0.37698465  0.75320273    -0.02150
C129        C  0.24086663  0.38415003  0.99386412    -0.02150
C130        C  0.99026835  0.38489057  0.23794711    -0.02150
O131        O  0.93232216  0.35435167  0.98193346    -0.72610
O132        O  0.05117747  0.36256718  0.98298256    -0.73590
O133        O  0.99203280  0.34927602  0.92392979    -0.62210
O134        O  0.99160409  0.36869310  0.04052094    -0.70620
O135        O  0.99677950  0.30338428  0.05332702    -0.70170
O136        O  0.99699843  0.28286846  0.93242923    -0.61430
O137        O  0.05719291  0.29649413  0.99305607    -0.73940
O138        O  0.93601678  0.28827659  0.99311366    -0.72720
Cu139      Cu  0.99153324  0.36071323  0.98179082     1.04560
Cu140      Cu  0.99679383  0.29011721  0.99321863     1.04330
C141        C  0.91545286  0.32063291  0.98897549     0.93590
C142        C  0.07296438  0.33128847  0.98854009     0.92730
C143        C  0.99591809  0.31389732  0.90958572     0.84870
C144        C  0.99400289  0.33996502  0.06578292     0.91140
C145        C  0.75303621  0.01094627  0.62317251    -0.02150
C146        C  0.00051116  0.76738968  0.62815725    -0.02150
C147        C  0.00574614  0.24965022  0.62249977    -0.02150
C148        C  0.23605081  0.01216572  0.63439333    -0.02150
O149        O  0.99368199  0.94841000  0.72205516    -0.72610
O150        O  0.99312576  0.07099477  0.71829610    -0.73590
O151        O  0.93189591  0.00928462  0.72348066    -0.62210
O152        O  0.05361909  0.01029366  0.71672198    -0.70620
O153        O  0.04573016  0.00634833  0.65028061    -0.70170
O154        O  0.92839287  0.00789460  0.65658779    -0.61430
O155        O  0.98871441  0.06668915  0.65156886    -0.73940
O156        O  0.98614630  0.94771951  0.65544640    -0.72720
Cu157      Cu  0.99310164  0.00992226  0.72283175     1.04560
Cu158      Cu  0.98695371  0.00721196  0.65144668     1.04330
C159        C  0.98981917  0.92907374  0.68878785     0.93590
C160        C  0.99288745  0.08760621  0.68361716     0.92730
C161        C  0.91137297  0.00770919  0.69045325     0.84870
C162        C  0.06841244  0.00776836  0.68163707     0.91140
C163        C  0.13014670  0.26702487  0.49518948    -0.02150
C164        C  0.12296221  0.51105859  0.25118021    -0.02150
C165        C  0.13282779  0.50769938  0.74113002    -0.02150
C166        C  0.13155306  0.76099685  0.50684398    -0.02150
O167        O  0.20744618  0.45398832  0.49200914    -0.72610
O168        O  0.21734359  0.57574040  0.49619178    -0.73590
O169        O  0.20716385  0.51277893  0.55493097    -0.62210
O170        O  0.21648894  0.51498471  0.43340936    -0.70620
O171        O  0.14972688  0.52004448  0.42933680    -0.70170
O172        O  0.14134923  0.52031600  0.54610168    -0.61430
O173        O  0.15083111  0.58018082  0.48871826    -0.73940
O174        O  0.14102922  0.46130982  0.48704874    -0.72720
Cu175      Cu  0.21481453  0.51448380  0.49425304     1.04560
Cu176      Cu  0.14375783  0.52090578  0.48744008     1.04330
C177        C  0.17211489  0.43881749  0.48976934     0.93590
C178        C  0.18513367  0.59682574  0.49390492     0.92730
C179        C  0.17176368  0.51474334  0.56933711     0.84870
C180        C  0.18351919  0.51547591  0.41279080     0.91140
C181        C  0.25740547  0.13516600  0.50683663    -0.02150
C182        C  0.50248268  0.14327806  0.25261711    -0.02150
C183        C  0.49124010  0.13571224  0.73977043    -0.02150
C184        C  0.75423861  0.13431781  0.49248317    -0.02150
O185        O  0.44700055  0.15300334  0.49507055    -0.72610
O186        O  0.56106085  0.15072460  0.47784874    -0.73590
O187        O  0.51304284  0.14405954  0.54460358    -0.62210
O188        O  0.49440403  0.16161249  0.42818112    -0.70620
O189        O  0.50161228  0.22786642  0.43615733    -0.70170
O190        O  0.51265474  0.20986250  0.55618062    -0.61430
O191        O  0.56897752  0.21580763  0.49063791    -0.73940
O192        O  0.44524888  0.21960757  0.50118062    -0.72720
Cu193      Cu  0.50391455  0.15054160  0.48616861     1.04560
Cu194      Cu  0.50734720  0.22111603  0.49650684     1.04330
C195        C  0.42713993  0.18535588  0.49929003     0.93590
C196        C  0.58393792  0.18121063  0.48183744     0.92730
C197        C  0.51358575  0.17360262  0.56926047     0.84870
C198        C  0.49579757  0.19708911  0.41351173     0.91140
C199        C  0.00209885  0.76326200  0.37672769    -0.02150
C200        C  0.76485061  0.00314610  0.37082326    -0.02150
C201        C  0.25393179  0.00958542  0.37289211    -0.02150
C202        C  0.00255319  0.25700847  0.36748371    -0.02150
O203        O  0.01416879  0.06296758  0.35081628    -0.72610
O204        O  0.01600305  0.94678606  0.34828131    -0.73590
O205        O  0.07359946  0.00634461  0.34636513    -0.62210
O206        O  0.95551670  0.00356554  0.35185424    -0.70620
O207        O  0.94840494  0.00725244  0.28539971    -0.70170
O208        O  0.07085213  0.00859677  0.27956438    -0.61430
O209        O  0.00957333  0.94553923  0.28159482    -0.73940
O210        O  0.00870705  0.06970894  0.28483170    -0.72720
Cu211      Cu  0.01509663  0.00485978  0.35112407     1.04560
Cu212      Cu  0.00943751  0.00772541  0.27996448     1.04330
C213        C  0.01016336  0.08540475  0.32014622     0.93590
C214        C  0.01149865  0.92729371  0.31559968     0.92730
C215        C  0.09104993  0.00903316  0.31281504     0.84870
C216        C  0.93303643  0.00467363  0.32024374     0.91140
C217        C  0.00596586  0.12923071  0.32825101    -0.05130
C218        C  0.01393812  0.15934911  0.29985150    -0.32560
C219        C  0.01238665  0.20084126  0.31049765     0.36690
C220        C  0.00186399  0.21282118  0.35028541    -0.05490
C221        C  0.99341240  0.18130809  0.37719375    -0.32460
C222        C  0.99524033  0.14118103  0.36712904     0.36590
H223        H  0.02275749  0.15082148  0.26983386     0.16960
O224        O  0.02378909  0.22858920  0.28247701    -0.59960
H225        H  0.98496373  0.18605838  0.40748395     0.16980
O226        O  0.98557013  0.11375052  0.39635295    -0.60050
H227        H  0.00975163  0.11204377  0.41437904     0.43970
H228        H  0.00223882  0.22813345  0.26131919     0.43930
C229        C  0.21375385  0.01434144  0.34803334    -0.05130
C230        C  0.18713465  0.04683428  0.35558923    -0.32560
C231        C  0.14813654  0.04732120  0.33998675     0.36690
C232        C  0.13457780  0.01599186  0.31491615    -0.05490
C233        C  0.16222112  0.98760894  0.30089414    -0.32460
C234        C  0.20217694  0.98735933  0.31637823     0.36590
H235        H  0.19468154  0.07166298  0.37535393     0.16960
O236        O  0.12238927  0.07753934  0.35142772    -0.59960
H237        H  0.15222987  0.96392536  0.28045654     0.16980
O238        O  0.22874069  0.95907287  0.30250893    -0.60050
H239        H  0.21738925  0.93232764  0.30928371     0.43970
H240        H  0.11506236  0.07112646  0.37946470     0.43930
C241        C  0.88931571  0.00056906  0.32574729    -0.05130
C242        C  0.87727173  0.97103197  0.35247375    -0.32560
C243        C  0.83880486  0.97072428  0.36837458     0.36690
C244        C  0.80845450  0.99827110  0.35377020    -0.05490
C245        C  0.82126222  0.02755539  0.32557493    -0.32460
C246        C  0.86093193  0.02871988  0.31154203     0.36590
H247        H  0.89929504  0.94966633  0.36418602     0.16960
O248        O  0.83325291  0.94499926  0.40004767    -0.59960
H249        H  0.80038245  0.05053212  0.31507489     0.16980
O250        O  0.87226357  0.05924248  0.28646040    -0.60050
H251        H  0.86658243  0.04891614  0.25887867     0.43970
H252        H  0.85571058  0.94936266  0.41981223     0.43930
C253        C  0.00429069  0.88401502  0.32051451    -0.05130
C254        C  0.97459538  0.87473898  0.34801652    -0.32560
C255        C  0.97555236  0.83891903  0.36964262     0.36690
C256        C  0.00162745  0.80692559  0.35815404    -0.05490
C257        C  0.03178951  0.81686849  0.33009495    -0.32460
C258        C  0.03325555  0.85488021  0.31151925     0.36590
H259        H  0.95402471  0.89815885  0.35753482     0.16960
O260        O  0.95457280  0.83841481  0.40472660    -0.59960
H261        H  0.05453124  0.79478872  0.32273341     0.16980
O262        O  0.06464758  0.86414205  0.28714965    -0.60050
H263        H  0.05513001  0.85677496  0.25960242     0.43970
H264        H  0.96678171  0.85950715  0.42243387     0.43930
C265        C  0.76440764  0.10375024  0.45789135    -0.05130
C266        C  0.78387925  0.06684120  0.46597944    -0.32560
C267        C  0.78949729  0.03785982  0.43641774     0.36690
C268        C  0.76964430  0.04114756  0.39843569    -0.05490
C269        C  0.75473202  0.07964962  0.38802624    -0.32460
C270        C  0.75369899  0.11118371  0.41673027     0.36590
H271        H  0.79598502  0.05911994  0.49500962     0.16960
O272        O  0.81021871  0.00381324  0.44724159    -0.59960
H273        H  0.74348205  0.08545288  0.35779105     0.16980
O274        O  0.74117662  0.14878302  0.40450035    -0.60050
H275        H  0.71254520  0.14564054  0.39589892     0.43970
H276        H  0.83869112  0.01251687  0.45050594     0.43930
C277        C  0.71031271  0.14981708  0.48175383    -0.05130
C278        C  0.69876888  0.19096185  0.47658006    -0.32560
C279        C  0.65787124  0.20274972  0.47626311     0.36690
C280        C  0.62762556  0.17321580  0.47759392    -0.05490
C281        C  0.63910117  0.13271799  0.47471148    -0.32460
C282        C  0.67909200  0.12113078  0.47558637     0.36590
H283        H  0.72056201  0.21456055  0.47258603     0.16960
O284        O  0.64802050  0.24284383  0.47361441    -0.59960
H285        H  0.61696778  0.10869269  0.47340116     0.16980
O286        O  0.68689523  0.08071733  0.47475618    -0.60050
H287        H  0.67614851  0.07175067  0.44811878     0.43970
H288        H  0.65059047  0.25334894  0.50152413     0.43930
C289        C  0.49774068  0.14933624  0.69566736    -0.05130
C290        C  0.49730229  0.11836862  0.66625662    -0.32560
C291        C  0.50503669  0.12548376  0.62621993     0.36690
C292        C  0.51228346  0.16500562  0.61293941    -0.05490
C293        C  0.51496240  0.19618532  0.64165571    -0.32460
C294        C  0.50895477  0.18863212  0.68282421     0.36590
H295        H  0.49009319  0.08763920  0.67422732     0.16960
O296        O  0.50369041  0.09325251  0.60017786    -0.59960
H297        H  0.52207827  0.22660240  0.63227903     0.16980
O298        O  0.51688162  0.21918163  0.70978741    -0.60050
H299        H  0.49730702  0.24091508  0.70314381     0.43970
H300        H  0.53126076  0.08174861  0.60112947     0.43930
C301        C  0.49767792  0.16995525  0.29116813    -0.05130
C302        C  0.46019920  0.17153790  0.31053797    -0.32560
C303        C  0.45771905  0.18475921  0.35019319     0.36690
C304        C  0.49172182  0.20085635  0.36975736    -0.05490
C305        C  0.52544691  0.21014227  0.34721455    -0.32460
C306        C  0.52818588  0.19600520  0.30730705     0.36590
H307        H  0.43304335  0.15935341  0.29667287     0.16960
O308        O  0.42278777  0.17915568  0.37060208    -0.59960
H309        H  0.55108479  0.22497327  0.36157660     0.16980
O310        O  0.56143482  0.20560108  0.28547194    -0.60050
H311        H  0.58539501  0.20427462  0.30376481     0.43970
H312        H  0.41891895  0.14949331  0.37130674     0.43930
C313        C  0.25067947  0.10486970  0.47010652    -0.05130
C314        C  0.23347330  0.06649858  0.47458944    -0.32560
C315        C  0.23107703  0.03861762  0.44241452     0.36690
C316        C  0.25480407  0.04363603  0.40725610    -0.05490
C317        C  0.26895438  0.08363416  0.40175863    -0.32460
C318        C  0.26151692  0.11469664  0.43008179     0.36590
H319        H  0.21784196  0.05931605  0.50165722     0.16960
O320        O  0.20215807  0.00883745  0.44340693    -0.59960
H321        H  0.28420825  0.09248003  0.37519624     0.16980
O322        O  0.27084337  0.15371958  0.42022516    -0.60050
H323        H  0.24486450  0.16605994  0.41164858     0.43970
H324        H  0.19929945  0.99980709  0.47158750     0.43930
C325        C  0.30208467  0.15169515  0.50595352    -0.05130
C326        C  0.33014076  0.13347724  0.48037705    -0.32560
C327        C  0.36750483  0.14978312  0.47366762     0.36690
C328        C  0.38302225  0.18006151  0.49918102    -0.05490
C329        C  0.35862077  0.19501538  0.52980302    -0.32460
C330        C  0.31877298  0.18044479  0.53391832     0.36590
H331        H  0.32475451  0.10478144  0.46591725     0.16960
O332        O  0.39068244  0.13254252  0.44447640    -0.59960
H333        H  0.37106992  0.21594588  0.55188159     0.16980
O334        O  0.29699984  0.19312332  0.56622715    -0.60050
H335        H  0.30900263  0.17912232  0.58993161     0.43970
H336        H  0.37407433  0.13344607  0.41930608     0.43930
C337        C  0.10282395  0.76498222  0.46771314    -0.05130
C338        C  0.10362197  0.73822163  0.43380591    -0.32560
C339        C  0.07495864  0.73947118  0.40175236     0.36690
C340        C  0.04105108  0.76478275  0.40404302    -0.05490
C341        C  0.04139477  0.79303287  0.43574056    -0.32460
C342        C  0.07035936  0.79333585  0.46673664     0.36590
H343        H  0.12512163  0.71454592  0.43089896     0.16960
O344        O  0.08060126  0.71504118  0.36906207    -0.59960
H345        H  0.01660369  0.81361561  0.43879968     0.16980
O346        O  0.06413816  0.82017601  0.49754114    -0.60050
H347        H  0.03875580  0.81167849  0.51026856     0.43970
H348        H  0.09489377  0.73203657  0.34947645     0.43930
C349        C  0.15518683  0.71971019  0.50794101    -0.05130
C350        C  0.18080766  0.70885830  0.47616463    -0.32560
C351        C  0.19379739  0.66875232  0.47145405     0.36690
C352        C  0.18553335  0.64039241  0.50134544    -0.05490
C353        C  0.16989134  0.65357165  0.53753984    -0.32460
C354        C  0.15607649  0.69309956  0.54182720     0.36590
H355        H  0.18713107  0.73048000  0.45274587     0.16960
O356        O  0.21130989  0.65701622  0.43636817    -0.59960
H357        H  0.16677757  0.63254037  0.56221769     0.16980
O358        O  0.14683138  0.70619703  0.57982901    -0.60050
H359        H  0.12742988  0.68645218  0.59064004     0.43970
H360        H  0.24069490  0.65931180  0.44177092     0.43930
C361        C  0.14746878  0.50634207  0.69653216    -0.05130
C362        C  0.11733230  0.50014949  0.66623823    -0.32560
C363        C  0.12524052  0.50153858  0.62565571     0.36690
C364        C  0.16442877  0.50971512  0.61279391    -0.05490
C365        C  0.19562796  0.51286075  0.64177119    -0.32460
C366        C  0.18777888  0.51093506  0.68323993     0.36590
H367        H  0.08618842  0.49594831  0.67435164     0.16960
O368        O  0.09366771  0.49582023  0.59886125    -0.59960
H369        H  0.22627377  0.51753249  0.63235759     0.16980
O370        O  0.22001736  0.51291542  0.70959021    -0.60050
H371        H  0.23015706  0.54102373  0.70791446     0.43970
H372        H  0.08923378  0.46622429  0.59793648     0.43930
C373        C  0.18208018  0.50768416  0.36974573    -0.05130
C374        C  0.19285418  0.53772072  0.34290525    -0.32560
C375        C  0.17637666  0.53780514  0.30371281     0.36690
C376        C  0.14723437  0.50814156  0.29170223    -0.05490
C377        C  0.14273401  0.47456040  0.31736249    -0.32460
C378        C  0.15931817  0.47458073  0.35606804     0.36590
H379        H  0.21124208  0.56290272  0.35320240     0.16960
O380        O  0.18727633  0.56819526  0.27822913    -0.59960
H381        H  0.12500917  0.44848519  0.30870077     0.16980
O382        O  0.14971810  0.44387857  0.38179015    -0.60050
H383        H  0.17299332  0.42516381  0.38132271     0.43970
H384        H  0.17917257  0.59388909  0.29114112     0.43930
C385        C  0.16467349  0.23445855  0.49693897    -0.05130
C386        C  0.15477803  0.19338061  0.49129443    -0.32560
C387        C  0.18362567  0.16223657  0.49191898     0.36690
C388        C  0.22501563  0.17028798  0.50116788    -0.05490
C389        C  0.23487061  0.21178076  0.50500765    -0.32460
C390        C  0.20575612  0.24264758  0.50631439     0.36590
H391        H  0.12412244  0.18488527  0.48416793     0.16960
O392        O  0.17092748  0.12409524  0.48118851    -0.59960
H393        H  0.26530000  0.22210385  0.50743111     0.16980
O394        O  0.21791577  0.27973303  0.52064402    -0.60050
H395        H  0.23952914  0.28906117  0.50276745     0.43970
H396        H  0.14715957  0.11775134  0.49757295     0.43930
C397        C  0.04258308  0.26421612  0.39229451    -0.05130
C398        C  0.07580579  0.23753388  0.39219713    -0.32560
C399        C  0.10724770  0.24035998  0.42157023     0.36690
C400        C  0.10338587  0.26684001  0.45518352    -0.05490
C401        C  0.07315519  0.29691809  0.45103276    -0.32460
C402        C  0.04568735  0.29783891  0.41860151     0.36590
H403        H  0.07799357  0.21471160  0.36900968     0.16960
O404        O  0.14227501  0.21960604  0.41509590    -0.59960
H405        H  0.06890467  0.31931576  0.47410510     0.16980
O406        O  0.01722593  0.32789809  0.41730293    -0.60050
H407        H  0.03123051  0.35189879  0.40667440     0.43970
H408        H  0.13451460  0.19104722  0.41013625     0.43930
C409        C  0.14564542  0.31177431  0.49655437    -0.05130
C410        C  0.12641956  0.34130544  0.52041796    -0.32560
C411        C  0.13717819  0.38160083  0.51993859     0.36690
C412        C  0.16577738  0.39520620  0.49304173    -0.05490
C413        C  0.18378371  0.36764446  0.46697572    -0.32460
C414        C  0.17284316  0.32656730  0.46753482     0.36590
H415        H  0.10015418  0.33477304  0.53757658     0.16960
O416        O  0.11772017  0.40805775  0.54473534    -0.59960
H417        H  0.20464979  0.37825168  0.44478276     0.16980
O418        O  0.18835524  0.30115573  0.43915061    -0.60050
H419        H  0.17216200  0.30622095  0.41424131     0.43970
H420        H  0.13490673  0.40970639  0.56948461     0.43930
C421        C  0.24040248  0.05643693  0.61557537    -0.05130
C422        C  0.27879974  0.07147622  0.60582181    -0.32560
C423        C  0.28535965  0.09455399  0.57107672     0.36690
C424        C  0.25260145  0.11243458  0.54876540    -0.05490
C425        C  0.21439591  0.10580990  0.56534043    -0.32460
C426        C  0.20766789  0.07682858  0.59545088     0.36590
H427        H  0.30549969  0.06244619  0.62188331     0.16960
O428        O  0.32412930  0.09544493  0.55776224    -0.59960
H429        H  0.18806076  0.12029041  0.55330811     0.16980
O430        O  0.16831555  0.06692781  0.60197930    -0.60050
H431        H  0.15722830  0.08979133  0.61757254     0.43970
H432        H  0.34005145  0.11056848  0.57845491     0.43930
C433        C  0.19292558  0.00819311  0.65102642    -0.05130
C434        C  0.16445711  0.98161412  0.63280967    -0.32560
C435        C  0.12528353  0.97921086  0.64549949     0.36690
C436        C  0.11181505  0.00522263  0.67555787    -0.05490
C437        C  0.13885928  0.03220421  0.69425633    -0.32460
C438        C  0.17897388  0.03435796  0.68177422     0.36590
H439        H  0.17075566  0.96341279  0.60681516     0.16960
O440        O  0.09942265  0.95269031  0.62630166    -0.59960
H441        H  0.12839182  0.05313875  0.71682878     0.16980
O442        O  0.20426010  0.06250655  0.69918205    -0.60050
H443        H  0.19665473  0.08860922  0.68662754     0.43970
H444        H  0.10484851  0.92613167  0.63897813     0.43930
C445        C  0.10279864  0.25669276  0.53195147    -0.05130
C446        C  0.07026457  0.22992698  0.52749954    -0.32560
C447        C  0.04077904  0.22623683  0.55685139     0.36690
C448        C  0.04182168  0.25090894  0.59213272    -0.05490
C449        C  0.07776686  0.27318089  0.59877985    -0.32460
C450        C  0.10973748  0.27142929  0.57161519     0.36590
H451        H  0.06687056  0.21193037  0.50054789     0.16960
O452        O  0.01019783  0.19910350  0.54988596    -0.59960
H453        H  0.08222308  0.29212703  0.62472149     0.16980
O454        O  0.14606881  0.28819553  0.58277652    -0.60050
H455        H  0.16329576  0.26502791  0.59084478     0.43970
H456        H  0.02227647  0.17210030  0.55454299     0.43930
C457        C  0.00642145  0.20913408  0.64611680    -0.05130
C458        C  0.03706616  0.18020628  0.64016281    -0.32560
C459        C  0.03419473  0.14142907  0.65549646     0.36690
C460        C  0.00125879  0.13065797  0.67867771    -0.05490
C461        C  0.97423236  0.16040652  0.69076207    -0.32460
C462        C  0.97702748  0.19981759  0.67531292     0.36590
H463        H  0.06309464  0.18633179  0.62234707     0.16960
O464        O  0.06257439  0.11325742  0.64536964    -0.59960
H465        H  0.94946131  0.15255594  0.70987191     0.16980
O466        O  0.94973485  0.22834434  0.68720913    -0.60050
H467        H  0.92294624  0.21882056  0.67749042     0.43970
H468        H  0.08230647  0.11311170  0.66821491     0.43930
C469        C  0.10182271  0.76195337  0.54270559    -0.05130
C470        C  0.09969163  0.79468353  0.56985756    -0.32560
C471        C  0.06682040  0.79937601  0.59554569     0.36690
C472        C  0.03879401  0.76723915  0.60103182    -0.05490
C473        C  0.04384471  0.73282654  0.57645932    -0.32460
C474        C  0.07227811  0.73125948  0.54612370     0.36590
H475        H  0.12055710  0.81958365  0.56794107     0.16960
O476        O  0.06137762  0.83692243  0.61171359    -0.59960
H477        H  0.02342695  0.70755261  0.57887583     0.16980
O478        O  0.07080626  0.69953214  0.51932860    -0.60050
H479        H  0.07384333  0.67457300  0.53553215     0.43970
H480        H  0.04481150  0.85183620  0.59150036     0.43930
C481        C  0.99358260  0.80680182  0.65300268    -0.05130
C482        C  0.02434564  0.82154691  0.67934388    -0.32560
C483        C  0.02271055  0.86104187  0.69487781     0.36690
C484        C  0.98848237  0.88482980  0.68713262    -0.05490
C485        C  0.95457293  0.86710066  0.66909147    -0.32460
C486        C  0.95615937  0.82799672  0.65338375     0.36590
H487        H  0.05176245  0.80435935  0.68392774     0.16960
O488        O  0.05571081  0.87703588  0.71468217    -0.59960
H489        H  0.92699657  0.88437757  0.66563044     0.16980
O490        O  0.92057964  0.81023703  0.64091538    -0.60050
H491        H  0.90821279  0.82846838  0.62046294     0.43970
H492        H  0.07354079  0.88668218  0.69322300     0.43930
C493        C  0.75432797  0.11258003  0.53516475    -0.05130
C494        C  0.79071581  0.09984263  0.55393720    -0.32560
C495        C  0.79186148  0.06886678  0.58323836     0.36690
C496        C  0.75546960  0.04979169  0.59581888    -0.05490
C497        C  0.71955029  0.06492531  0.57846523    -0.32460
C498        C  0.71905487  0.09984696  0.55492670     0.36590
H499        H  0.81908197  0.11078544  0.54290811     0.16960
O500        O  0.82905943  0.05588809  0.59663758    -0.59960
H501        H  0.69094615  0.05213403  0.58676502     0.16980
O502        O  0.68479090  0.12285048  0.55518387    -0.60050
H503        H  0.69126291  0.14600166  0.57319612     0.43970
H504        H  0.84346181  0.04635191  0.57258115     0.43930
C505        C  0.79179667  0.00567298  0.64954849    -0.05130
C506        C  0.80520921  0.03861855  0.67365619    -0.32560
C507        C  0.84323703  0.03824057  0.69266626     0.36690
C508        C  0.86761365  0.00401954  0.68934179    -0.05490
C509        C  0.85155654  0.96878454  0.67234705    -0.32460
C510        C  0.81365004  0.96892455  0.65323073     0.36590
H511        H  0.78784028  0.06623328  0.67442244     0.16960
O512        O  0.85801215  0.07285259  0.71024373    -0.59960
H513        H  0.86974556  0.94163061  0.67135610     0.16980
O514        O  0.79799559  0.93286216  0.63977803    -0.60050
H515        H  0.81798556  0.92164986  0.62113756     0.43970
H516        H  0.85267158  0.06988337  0.73930956     0.43930
C517        C  0.99452163  0.34976005  0.26905864    -0.05130
C518        C  0.02997222  0.34468280  0.29220913    -0.32560
C519        C  0.03385355  0.31532410  0.32225763     0.36690
C520        C  0.00061228  0.28977817  0.33261395    -0.05490
C521        C  0.96681410  0.29211857  0.30603277    -0.32460
C522        C  0.96303788  0.32181328  0.27578774     0.36590
H523        H  0.05632121  0.36273295  0.28665959     0.16960
O524        O  0.07221624  0.30932222  0.33730508    -0.59960
H525        H  0.94422955  0.26889677  0.30601141     0.16980
O526        O  0.92825000  0.32317672  0.25272705    -0.60050
H527        H  0.92893750  0.29901992  0.23506621     0.43970
H528        H  0.07990144  0.33456874  0.35170738     0.43930
C529        C  0.02685845  0.41591200  0.24272641    -0.05130
C530        C  0.02638619  0.44772599  0.27099324    -0.32560
C531        C  0.05717843  0.47653473  0.27440823     0.36690
C532        C  0.09043083  0.47634086  0.24812692    -0.05490
C533        C  0.09193884  0.44403601  0.22056069    -0.32460
C534        C  0.06281942  0.41307418  0.21981084     0.36590
H535        H  0.00260112  0.45123584  0.29179538     0.16960
O536        O  0.05477758  0.50465557  0.30471290    -0.59960
H537        H  0.11608058  0.44144936  0.19964026     0.16980
O538        O  0.07064406  0.37984097  0.19657550    -0.60050
H539        H  0.08434204  0.36047488  0.21498807     0.43970
H540        H  0.03142067  0.52203887  0.29737743     0.43930
C541        C  0.99065005  0.36967467  0.19326199    -0.05130
C542        C  0.98965222  0.39973754  0.16312601    -0.32560
C543        C  0.99014412  0.39052114  0.12234536     0.36690
C544        C  0.99328993  0.35006022  0.10943068    -0.05490
C545        C  0.99633978  0.31973221  0.13870634    -0.32460
C546        C  0.99596600  0.32899551  0.18004093     0.36590
H547        H  0.98786894  0.43133307  0.17154893     0.16960
O548        O  0.98814836  0.42188035  0.09550330    -0.59960
H549        H  0.99998804  0.28853664  0.12961337     0.16980
O550        O  0.00300364  0.29797971  0.20638096    -0.60050
H551        H  0.03271006  0.29647537  0.20968218     0.43970
H552        H  0.95902997  0.42784682  0.09189563     0.43930
C553        C  0.19739113  0.36574433  0.99729833    -0.05130
C554        C  0.18333958  0.33985167  0.96579633    -0.32560
C555        C  0.14360325  0.32547351  0.96377217     0.36690
C556        C  0.11641941  0.33720699  0.99312107    -0.05490
C557        C  0.12930248  0.36200971  0.02450416    -0.32460
C558        C  0.16807099  0.37780565  0.02616182     0.36590
H559        H  0.20323665  0.33174282  0.94169482     0.16960
O560        O  0.13096395  0.30253642  0.93148883    -0.59960
H561        H  0.10778157  0.37238800  0.04633850     0.16980
O562        O  0.17419503  0.40825166  0.05358731    -0.60050
H563        H  0.15775422  0.43147439  0.04408356     0.43970
H564        H  0.13535529  0.27417304  0.93995927     0.43930
C565        C  0.00651509  0.34555916  0.71773141    -0.05130
C566        C  0.03831320  0.31731824  0.71470164    -0.32560
C567        C  0.03848112  0.28654018  0.68528104     0.36690
C568        C  0.00725613  0.28399731  0.65551179    -0.05490
C569        C  0.97378239  0.30972134  0.66134083    -0.32460
C570        C  0.97254430  0.33880471  0.69193762     0.36590
H571        H  0.06313675  0.31841722  0.73632614     0.16960
O572        O  0.06769494  0.25713896  0.68773680    -0.59960
H573        H  0.94591828  0.30558057  0.64455448     0.16980
O574        O  0.93590525  0.35620796  0.69918501    -0.60050
H575        H  0.92747696  0.36995473  0.67389281     0.43970
H576        H  0.09398119  0.27124156  0.69037204     0.43930
C577        C  0.04451651  0.40655782  0.75283158    -0.05130
C578        C  0.07384988  0.40559349  0.72303911    -0.32560
C579        C  0.10523839  0.43391227  0.72235092     0.36690
C580        C  0.10485146  0.46926511  0.74749358    -0.05490
C581        C  0.07797637  0.46758339  0.77955301    -0.32460
C582        C  0.04872560  0.43727570  0.78261012     0.36590
H583        H  0.07355452  0.38277087  0.69987543     0.16960
O584        O  0.13650652  0.42602982  0.69712656    -0.59960
H585        H  0.07888386  0.48952431  0.80309808     0.16980
O586        O  0.02442922  0.43773572  0.81547193    -0.60050
H587        H  0.00827378  0.46285916  0.81316403     0.43970
H588        H  0.15069800  0.40220906  0.70857866     0.43930
C589        C  0.00287721  0.31139654  0.86648396    -0.05130
C590        C  0.04007661  0.32561021  0.85393535    -0.32560
C591        C  0.04360061  0.34471138  0.81678650     0.36690
C592        C  0.00887106  0.35000917  0.79145043    -0.05490
C593        C  0.97434681  0.32705691  0.80077898    -0.32460
C594        C  0.97049759  0.30963793  0.83883352     0.36590
H595        H  0.06574627  0.32552304  0.87468854     0.16960
O596        O  0.08120268  0.35683932  0.80546677    -0.59960
H597        H  0.94844053  0.32694381  0.78039015     0.16980
O598        O  0.93375380  0.29542560  0.85027854    -0.60050
H599        H  0.93466800  0.26594339  0.84513480     0.43970
H600        H  0.09034768  0.37712265  0.82572964     0.43930
C601        C  0.79521597  0.35477733  0.00540116    -0.05130
C602        C  0.82267241  0.35309072  0.03852861    -0.32560
C603        C  0.86108393  0.33732154  0.03436311     0.36690
C604        C  0.87252066  0.32141766  0.99729884    -0.05490
C605        C  0.84353020  0.31578135  0.96662256    -0.32460
C606        C  0.80436108  0.33104860  0.97105384     0.36590
H607        H  0.81568223  0.36576246  0.06751865     0.16960
O608        O  0.88867102  0.34151599  0.06548222    -0.59960
H609        H  0.85193563  0.30230704  0.93828863     0.16980
O610        O  0.77631295  0.32583764  0.94044464    -0.60050
H611        H  0.78727892  0.33953780  0.91657930     0.43970
H612        H  0.88883669  0.31511395  0.07945617     0.43930
C613        C  0.74964345  0.46677662  0.10883678    -0.05130
C614        C  0.78389384  0.46571276  0.08472668    -0.32560
C615        C  0.78691335  0.43806548  0.05284436     0.36690
C616        C  0.75671081  0.40806750  0.04572092    -0.05490
C617        C  0.72676897  0.40472792  0.07495731    -0.32460
C618        C  0.72475051  0.43179804  0.10753694     0.36590
H619        H  0.80583664  0.48986268  0.08706668     0.16960
O620        O  0.81896821  0.44165582  0.02777737    -0.59960
H621        H  0.70367137  0.38191966  0.07269566     0.16980
O622        O  0.69681899  0.42461039  0.13644714    -0.60050
H623        H  0.70516090  0.39900376  0.14958743     0.43970
H624        H  0.81477793  0.46747880  0.01321114     0.43930
C625        C  0.69578005  0.51006585  0.14565171    -0.05130
C626        C  0.66458915  0.49792507  0.11903084    -0.32560
C627        C  0.62470202  0.49894920  0.12911165     0.36690
C628        C  0.61334581  0.51551477  0.16611809    -0.05490
C629        C  0.64329175  0.53034107  0.19264242    -0.32460
C630        C  0.68427010  0.52834829  0.18258386     0.36590
H631        H  0.67069451  0.48480842  0.09036112     0.16960
O632        O  0.59717060  0.48171938  0.10276465    -0.59960
H633        H  0.63493338  0.54447741  0.22067058     0.16980
O634        O  0.71189594  0.54728102  0.20747112    -0.60050
H635        H  0.71204132  0.53188333  0.23302403     0.43970
H636        H  0.59313391  0.50173719  0.08089741     0.43930
C637        C  0.48627079  0.71583095  0.14381019    -0.05130
C638        C  0.45778427  0.68886701  0.12636609    -0.32560
C639        C  0.45485821  0.64892052  0.13873565     0.36690
C640        C  0.48136835  0.63390809  0.16849287    -0.05490
C641        C  0.50949981  0.65978891  0.18671740    -0.32460
C642        C  0.51305158  0.69983797  0.17391550     0.36590
H643        H  0.43873426  0.69725434  0.10121583     0.16960
O644        O  0.42706029  0.62416190  0.11997282    -0.59960
H645        H  0.53075892  0.64824837  0.20907136     0.16980
O646        O  0.54320218  0.72303461  0.19089911    -0.60050
H647        H  0.56876992  0.71068610  0.18214306     0.43970
H648        H  0.40269893  0.62593731  0.13657425     0.43930
C649        C  0.50275378  0.17473449  0.21771023    -0.05130
C650        C  0.46654049  0.19427302  0.20602227    -0.32560
C651        C  0.46505609  0.22347139  0.17547761     0.36690
C652        C  0.50117750  0.24006694  0.16035921    -0.05490
C653        C  0.53699884  0.22754062  0.18020066    -0.32460
C654        C  0.53865063  0.19222096  0.20331984     0.36590
H655        H  0.43854974  0.18613889  0.21992266     0.16960
O656        O  0.42794491  0.23776140  0.16353796    -0.59960
H657        H  0.56485421  0.24367609  0.17581776     0.16980
O658        O  0.57589770  0.17717084  0.21366312    -0.60050
H659        H  0.58468577  0.16196877  0.18965592     0.43970
H660        H  0.41559235  0.21589018  0.14694933     0.43930
C661        C  0.50558131  0.31413693  0.15651140    -0.05130
C662        C  0.47335654  0.32627592  0.18078704    -0.32560
C663        C  0.47283347  0.36483191  0.19820088     0.36690
C664        C  0.50606194  0.39036299  0.19402024    -0.05490
C665        C  0.54152976  0.37489667  0.17877856    -0.32460
C666        C  0.54212758  0.33659716  0.16125106     0.36590
H667        H  0.44654799  0.30801474  0.18247304     0.16960
O668        O  0.43822028  0.37883365  0.21501758    -0.59960
H669        H  0.56821357  0.39370241  0.17785478     0.16980
O670        O  0.57874114  0.32115340  0.15049459    -0.60050
H671        H  0.58970927  0.34004224  0.13037981     0.43970
H672        H  0.44167553  0.37358843  0.24423983     0.43930
C673        C  0.22173915  0.50707008  0.16236917    -0.05130
C674        C  0.20183316  0.54324079  0.17225750    -0.32560
C675        C  0.16849662  0.54498381  0.19682672     0.36690
C676        C  0.15587052  0.51011060  0.21812058    -0.05490
C677        C  0.18185067  0.47648279  0.21605020    -0.32460
C678        C  0.21548033  0.47587632  0.19097101     0.36590
H679        H  0.21366348  0.57222410  0.16397922     0.16960
O680        O  0.15324831  0.58277539  0.20421726    -0.59960
H681        H  0.17824234  0.45179760  0.23696990     0.16980
O682        O  0.24596998  0.44991266  0.20158575    -0.60050
H683        H  0.26076334  0.46320381  0.22427153     0.43970
H684        H  0.14270101  0.59294377  0.17797276     0.43930
C685        C  0.25092591  0.41368544  0.02946214    -0.05130
C686        C  0.25046150  0.40042280  0.06962910    -0.32560
C687        C  0.24737186  0.42809146  0.10203946     0.36690
C688        C  0.24829089  0.47105415  0.09566342    -0.05490
C689        C  0.24844520  0.48201953  0.05439978    -0.32460
C690        C  0.25749150  0.45520871  0.02415350     0.36590
H691        H  0.24807750  0.36839553  0.07568460     0.16960
O692        O  0.24440460  0.41167476  0.13928038    -0.59960
H693        H  0.24513537  0.51228812  0.04349284     0.16980
O694        O  0.27402392  0.47071921  0.99007415    -0.60050
H695        H  0.30173562  0.47905191  0.99813366     0.43970
H696        H  0.21600535  0.40267760  0.14099778     0.43930
C697        C  0.29540530  0.50033363  0.15359237    -0.05130
C698        C  0.32092095  0.46685706  0.14787256    -0.32560
C699        C  0.35786222  0.46380985  0.16785283     0.36690
C700        C  0.37217512  0.49602338  0.19152749    -0.05490
C701        C  0.34660660  0.52795805  0.20044974    -0.32460
C702        C  0.30844726  0.53033016  0.18191498     0.36590
H703        H  0.31486692  0.44377651  0.12591530     0.16960
O704        O  0.38263462  0.43194588  0.15904630    -0.59960
H705        H  0.35773263  0.55328421  0.21819118     0.16980
O706        O  0.28554968  0.56382180  0.18935721    -0.60050
H707        H  0.29716220  0.58568379  0.17291737     0.43970
H708        H  0.37208392  0.40887071  0.17453851     0.43930
C709        C  0.66243410  0.00945126  0.28087928    -0.05130
C710        C  0.70101234  0.99521450  0.26980940    -0.32560
C711        C  0.73399301  0.99289809  0.29720912     0.36690
C712        C  0.73090432  0.00753708  0.33722630    -0.05490
C713        C  0.69201691  0.01977322  0.34846503    -0.32460
C714        C  0.65816240  0.01782776  0.32239570     0.36590
H715        H  0.70575956  0.98314650  0.24005826     0.16960
O716        O  0.76824336  0.97425596  0.28442229    -0.59960
H717        H  0.68682108  0.03008958  0.37846725     0.16980
O718        O  0.62071481  0.02184982  0.33861687    -0.60050
H719        H  0.62132501  0.04639516  0.35583445     0.43970
H720        H  0.76346693  0.94497969  0.28820896     0.43930
C721        C  0.59927520  0.04960342  0.24805240    -0.05130
C722        C  0.60269434  0.08120318  0.27649478    -0.32560
C723        C  0.57111119  0.10936812  0.28197290     0.36690
C724        C  0.54038176  0.11445821  0.25166107    -0.05490
C725        C  0.54220326  0.08779847  0.21860767    -0.32460
C726        C  0.56774459  0.05413652  0.21856974     0.36590
H727        H  0.62783075  0.08253445  0.29734837     0.16960
O728        O  0.56829359  0.12705305  0.31913609    -0.59960
H729        H  0.52014012  0.09024780  0.19426206     0.16980
O730        O  0.55939810  0.02450987  0.19077032    -0.60050
H731        H  0.56589459  0.03633291  0.16430305     0.43970
H732        H  0.59522004  0.13836742  0.32611987     0.43930
C733        C  0.64169656  0.00646523  0.20571467    -0.05130
C734        C  0.62637477  0.97768903  0.17788974    -0.32560
C735        C  0.63772157  0.97694075  0.13789568     0.36690
C736        C  0.66460487  0.00582022  0.12334008    -0.05490
C737        C  0.68079518  0.03459843  0.15011127    -0.32460
C738        C  0.66892750  0.03569481  0.19056481     0.36590
H739        H  0.60196953  0.95776555  0.18491467     0.16960
O740        O  0.61958184  0.94955321  0.11225597    -0.59960
H741        H  0.70059853  0.05787138  0.13911869     0.16980
O742        O  0.68334778  0.06616774  0.21494949    -0.60050
H743        H  0.66629290  0.08993959  0.20843056     0.43970
H744        H  0.62578911  0.92258435  0.12375417     0.43930
C745        C  0.65411413  0.29400752  0.99814275    -0.05130
C746        C  0.68615918  0.28953020  0.02642596    -0.32560
C747        C  0.71782703  0.31762007  0.03009681     0.36690
C748        C  0.72025449  0.35115624  0.00360881    -0.05490
C749        C  0.68880114  0.35461701  0.97449150    -0.32460
C750        C  0.65442608  0.32996415  0.97498885     0.36590
H751        H  0.68658481  0.26399249  0.04657347     0.16960
O752        O  0.74707359  0.31115004  0.05919515    -0.59960
H753        H  0.68915417  0.37732343  0.95146555     0.16980
O754        O  0.62093689  0.34294482  0.95392569    -0.60050
H755        H  0.60969789  0.36523945  0.97018310     0.43970
H756        H  0.73393524  0.31586941  0.08528020     0.43930
C757        C  0.59693773  0.27203701  0.03836542    -0.05130
C758        C  0.56982263  0.30461522  0.04013504    -0.32560
C759        C  0.54052974  0.30653314  0.06991296     0.36690
C760        C  0.53716215  0.27519027  0.09899856    -0.05490
C761        C  0.56655679  0.24446753  0.09787331    -0.32460
C762        C  0.59925340  0.24679720  0.07251962     0.36590
H763        H  0.56900740  0.32687892  0.01640063     0.16960
O764        O  0.51444389  0.33865876  0.06964343    -0.59960
H765        H  0.56495951  0.21733615  0.11528869     0.16980
O766        O  0.63108041  0.22112025  0.07925508    -0.60050
H767        H  0.64711209  0.23366351  0.10151000     0.43970
H768        H  0.49722262  0.33516032  0.04509140     0.43930
C769        C  0.63296760  0.21732938  0.99703633    -0.05130
C770        C  0.67223266  0.20573248  0.98545871    -0.32560
C771        C  0.68489461  0.16491630  0.98675470     0.36690
C772        C  0.65819229  0.13471894  0.99940174    -0.05490
C773        C  0.61946272  0.14596625  0.00975864    -0.32460
C774        C  0.60609723  0.18527553  0.00695734     0.36590
H775        H  0.69321491  0.22801253  0.97481438     0.16960
O776        O  0.72260921  0.15490912  0.97418942    -0.59960
H777        H  0.59816345  0.12374231  0.02020621     0.16980
O778        O  0.56745058  0.19176535  0.01887764    -0.60050
H779        H  0.54979456  0.17628963  0.99988680     0.43970
H780        H  0.74053001  0.15876851  0.99816106     0.43930
C781        C  0.65957987  0.01293631  0.71881375    -0.05130
C782        C  0.66676705  0.04671526  0.69419284    -0.32560
C783        C  0.69839716  0.04844694  0.66701304     0.36690
C784        C  0.71945065  0.01291402  0.65605979    -0.05490
C785        C  0.71324765  0.97900163  0.68110455    -0.32460
C786        C  0.68504566  0.97901790  0.71236105     0.36590
H787        H  0.64911696  0.07355223  0.69591966     0.16960
O788        O  0.71149712  0.08606968  0.65587814    -0.59960
H789        H  0.73076196  0.95191222  0.67653892     0.16980
O790        O  0.68255464  0.94543211  0.73635072    -0.60050
H791        H  0.67434282  0.92285566  0.71828261     0.43970
H792        H  0.68769587  0.10063088  0.64461775     0.43930
C793        C  0.52662650  0.10420655  0.74602196    -0.05130
C794        C  0.56733899  0.11711906  0.74665862    -0.32560
C795        C  0.59976405  0.08923298  0.74809812     0.36690
C796        C  0.59275265  0.04705989  0.74133605    -0.05490
C797        C  0.55237165  0.03613653  0.73451585    -0.32460
C798        C  0.52082279  0.06204091  0.74202879     0.36590
H799        H  0.57401652  0.14907754  0.74853939     0.16960
O800        O  0.63730783  0.10280339  0.76011371    -0.59960
H801        H  0.54321626  0.00573585  0.72840259     0.16980
O802        O  0.48412610  0.04445065  0.74437171    -0.60050
H803        H  0.48450670  0.03035745  0.77072110     0.43970
H804        H  0.64371744  0.12587985  0.74240874     0.43930
C805        C  0.64222703  0.02130742  0.79456312    -0.05130
C806        C  0.68178954  0.00953586  0.80690123    -0.32560
C807        C  0.69402502  0.00911922  0.84785059     0.36690
C808        C  0.66715452  0.02171176  0.87727782    -0.05490
C809        C  0.63041343  0.03840015  0.86502635    -0.32460
C810        C  0.61714493  0.03727670  0.82532587     0.36590
H811        H  0.70323346  0.99888639  0.78556392     0.16960
O812        O  0.73101021  0.99382456  0.85872268    -0.59960
H813        H  0.60957273  0.04954826  0.88712492     0.16980
O814        O  0.57709776  0.04590274  0.81866495    -0.60050
H815        H  0.57360981  0.07471610  0.82609493     0.43970
H816        H  0.74953436  0.01729088  0.85844782     0.43930
C817        C  0.59333917  0.75372230  0.04376589    -0.05130
C818        C  0.55611555  0.73514990  0.03440289    -0.32560
C819        C  0.52540334  0.73353028  0.06206115     0.36690
C820        C  0.53005307  0.75303968  0.10004569    -0.05490
C821        C  0.57004216  0.76245461  0.11243079    -0.32460
C822        C  0.60212593  0.75923786  0.08530742     0.36590
H823        H  0.54946754  0.72312105  0.00469914     0.16960
O824        O  0.49023456  0.71424896  0.05086377    -0.59960
H825        H  0.57658553  0.77305961  0.14266484     0.16980
O826        O  0.64052935  0.76805994  0.09850796    -0.60050
H827        H  0.65314396  0.74149253  0.10414069     0.43970
H828        H  0.48023113  0.72735092  0.02575272     0.43930
C829        C  0.64186494  0.80871569  0.01266841    -0.05130
C830        C  0.66865724  0.82025392  0.98181036    -0.32560
C831        C  0.68401404  0.85966488  0.97894687     0.36690
C832        C  0.67388395  0.88847195  0.00779906    -0.05490
C833        C  0.65008716  0.87701381  0.03965339    -0.32460
C834        C  0.63189827  0.83924234  0.04115517     0.36590
H835        H  0.67619025  0.79877928  0.95851623     0.16960
O836        O  0.70585553  0.87042043  0.94618734    -0.59960
H837        H  0.64091431  0.89964920  0.06091246     0.16980
O838        O  0.60137531  0.83524324  0.06784856    -0.60050
H839        H  0.58104286  0.85619565  0.06092472     0.43970
H840        H  0.73435476  0.86579736  0.95440842     0.43930
C841        C  0.99602705  0.67217000  0.27694188    -0.05130
C842        C  0.99783105  0.66006957  0.31757818    -0.32560
C843        C  0.00144208  0.68799538  0.34951569     0.36690
C844        C  0.99976812  0.73033593  0.34233716    -0.05490
C845        C  0.98981691  0.74149810  0.30234021    -0.32460
C846        C  0.98952392  0.71418010  0.27021564     0.36590
H847        H  0.99860241  0.62814387  0.32462091     0.16960
O848        O  0.00551488  0.67297266  0.38765879    -0.59960
H849        H  0.98086634  0.77190844  0.29481957     0.16980
O850        O  0.97914146  0.72945796  0.23312215    -0.60050
H851        H  0.00252747  0.74588286  0.22490974     0.43970
H852        H  0.03133457  0.65794723  0.38861227     0.43930
C853        C  0.03802262  0.61343841  0.24435379    -0.05130
C854        C  0.04753039  0.58947567  0.21041101    -0.32560
C855        C  0.07384583  0.55692876  0.21267166     0.36690
C856        C  0.09701314  0.55004839  0.24798121    -0.05490
C857        C  0.09398918  0.57897890  0.27916008    -0.32460
C858        C  0.06686580  0.61158971  0.27657886     0.36590
H859        H  0.03321586  0.59467882  0.18136247     0.16960
O860        O  0.07592341  0.53105109  0.18036272    -0.59960
H861        H  0.11175409  0.57665209  0.30652722     0.16980
O862        O  0.07331452  0.64363804  0.30217299    -0.60050
H863        H  0.07469469  0.63244648  0.32984138     0.43970
H864        H  0.08782505  0.54683891  0.15830490     0.43930
C865        C  0.99556074  0.65957718  0.20108614    -0.05130
C866        C  0.03132846  0.67567114  0.18497214    -0.32560
C867        C  0.03327523  0.68547890  0.14426150     0.36690
C868        C  0.99872362  0.68174837  0.11975687    -0.05490
C869        C  0.96184778  0.67330234  0.13682689    -0.32460
C870        C  0.95970853  0.66249051  0.17718485     0.36590
H871        H  0.05867752  0.67747046  0.20326622     0.16960
O872        O  0.06952728  0.69562726  0.12818145    -0.59960
H873        H  0.93465543  0.67428765  0.11850438     0.16980
O874        O  0.92243181  0.65724584  0.19324494    -0.60050
H875        H  0.91007064  0.63423682  0.17836702     0.43970
H876        H  0.07061866  0.72551957  0.12947156     0.43930
C877        C  0.25777450  0.60675641  0.04029914    -0.05130
C878        C  0.29223221  0.58254287  0.04836754    -0.32560
C879        C  0.29479270  0.55581560  0.08175343     0.36690
C880        C  0.25977200  0.54671243  0.10466218    -0.05490
C881        C  0.22534264  0.56918090  0.09329163    -0.32460
C882        C  0.22804321  0.60390291  0.07037173     0.36590
H883        H  0.31813444  0.58470017  0.02987945     0.16960
O884        O  0.33000109  0.53483536  0.08770230    -0.59960
H885        H  0.19542476  0.56066647  0.10187960     0.16980
O886        O  0.20065379  0.63388604  0.07764944    -0.60050
H887        H  0.21577285  0.65447838  0.09357786     0.43970
H888        H  0.32943042  0.51289597  0.06732420     0.43930
C889        C  0.20720894  0.64918446  0.00066461    -0.05130
C890        C  0.17726427  0.61879363  0.99965932    -0.32560
C891        C  0.13667773  0.62732437  0.99770045     0.36690
C892        C  0.12313111  0.66766522  0.99937364    -0.05490
C893        C  0.15189767  0.69855095  0.00369102    -0.32460
C894        C  0.19346611  0.68975276  0.00541272     0.36590
H895        H  0.18587056  0.58719594  0.99938436     0.16960
O896        O  0.11065272  0.59519842  0.99470484    -0.59960
H897        H  0.14216990  0.72957328  0.00696842     0.16980
O898        O  0.21932749  0.72077787  0.01467936    -0.60050
H899        H  0.22332038  0.71970198  0.04431520     0.43970
H900        H  0.10866484  0.58873388  0.96555864     0.43930
C901        C  0.71945021  0.67200832  0.00784354    -0.05130
C902        C  0.67853699  0.66125385  0.00299426    -0.32560
C903        C  0.64744660  0.69034026  0.00215675     0.36690
C904        C  0.65594636  0.73185282  0.00943519    -0.05490
C905        C  0.69588158  0.74107466  0.02130790    -0.32460
C906        C  0.72684519  0.71250895  0.02098786     0.36590
H907        H  0.67057187  0.62986299  0.99821920     0.16960
O908        O  0.60872708  0.67743968  0.99498435    -0.59960
H909        H  0.70387857  0.77065091  0.03270572     0.16980
O910        O  0.76362576  0.72490021  0.03604155    -0.60050
H911        H  0.76064253  0.72715618  0.06557796     0.43970
H912        H  0.60794135  0.66702796  0.96696192     0.43930
C913        C  0.74440113  0.60680417  0.03836539    -0.05130
C914        C  0.73364885  0.56700738  0.02797133    -0.32560
C915        C  0.73118486  0.53621848  0.05605319     0.36690
C916        C  0.73981284  0.54312958  0.09765553    -0.05490
C917        C  0.74141691  0.58441704  0.10907999    -0.32460
C918        C  0.74464937  0.61576215  0.08025321     0.36590
H919        H  0.72589011  0.55843835  0.99742080     0.16960
O920        O  0.71840256  0.49962296  0.04166181    -0.59960
H921        H  0.74175955  0.59247580  0.14067170     0.16980
O922        O  0.74822872  0.65489749  0.09338912    -0.60050
H923        H  0.77451004  0.65646344  0.10807354     0.43970
H924        H  0.69088022  0.50437384  0.03037029     0.43930
C925        C  0.79573276  0.65805322  0.00841529    -0.05130
C926        C  0.82422760  0.64455234  0.03734320    -0.32560
C927        C  0.86434761  0.65683954  0.03664721     0.36690
C928        C  0.87756392  0.68322543  0.00655691    -0.05490
C929        C  0.84959414  0.69858317  0.97856196    -0.32460
C930        C  0.80924686  0.68574843  0.97879794     0.36590
H931        H  0.81714404  0.62149855  0.05883081     0.16960
O932        O  0.89163511  0.63944112  0.06303142    -0.59960
H933        H  0.85957221  0.71799506  0.95459015     0.16980
O934        O  0.78323074  0.69947957  0.94922237    -0.60050
H935        H  0.79012023  0.68416215  0.92463367     0.43970
H936        H  0.88022536  0.64247678  0.09020161     0.43930
C937        C  0.00332622  0.67071203  0.72101041    -0.05130
C938        C  0.03937705  0.68674832  0.70593320    -0.32560
C939        C  0.03961781  0.71603484  0.67540904     0.36690
C940        C  0.00306125  0.73364069  0.66097823    -0.05490
C941        C  0.96830321  0.72401321  0.68250512    -0.32460
C942        C  0.96760539  0.69220212  0.71044976     0.36590
H943        H  0.06822673  0.67618023  0.71736454     0.16960
O944        O  0.07627964  0.72942255  0.66281686    -0.59960
H945        H  0.94044143  0.73981827  0.67582018     0.16980
O946        O  0.93168701  0.68307695  0.72762959    -0.60050
H947        H  0.91249685  0.67661179  0.70523627     0.43970
H948        H  0.08820178  0.70632781  0.64825390     0.43930
C949        C  0.04418794  0.60956010  0.75124590    -0.05130
C950        C  0.06287942  0.59258496  0.78615319    -0.32560
C951        C  0.09334971  0.56264071  0.78418185     0.36690
C952        C  0.10634179  0.54775073  0.74636016    -0.05490
C953        C  0.09230193  0.57041991  0.71267815    -0.32460
C954        C  0.05923610  0.59636285  0.71407093     0.36590
H955        H  0.05276095  0.60082599  0.81570262     0.16960
O956        O  0.11212377  0.55014571  0.81937064    -0.59960
H957        H  0.10538483  0.56820350  0.68358007     0.16980
O958        O  0.04060063  0.60690413  0.67828191    -0.60050
H959        H  0.06121542  0.62068667  0.66210431     0.43970
H960        H  0.09100801  0.54652310  0.83968606     0.43930
C961        C  0.00038640  0.68452948  0.87484449    -0.05130
C962        C  0.96454216  0.67466134  0.85506662    -0.32560
C963        C  0.96426119  0.66237520  0.81494816     0.36690
C964        C  0.00111105  0.65871673  0.79398351    -0.05490
C965        C  0.03570178  0.67640165  0.81232828    -0.32460
C966        C  0.03582828  0.68792400  0.85298175     0.36590
H967        H  0.93673880  0.67405670  0.87153633     0.16960
O968        O  0.92779064  0.65299293  0.79726651    -0.59960
H969        H  0.06373155  0.67747837  0.79638142     0.16980
O970        O  0.07131349  0.69888674  0.87184488    -0.60050
H971        H  0.07208738  0.72875618  0.87017525     0.43970
H972        H  0.91566255  0.63250926  0.81476360     0.43930
C973        C  0.35024255  0.01299151  0.27890073    -0.05130
C974        C  0.34751433  0.98142628  0.30679418    -0.32560
C975        C  0.31534792  0.97749798  0.33294198     0.36690
C976        C  0.28924898  0.01085367  0.34126433    -0.05490
C977        C  0.29424698  0.04457770  0.31599367    -0.32460
C978        C  0.32518720  0.04692478  0.28753082     0.36590
H979        H  0.36957652  0.95807073  0.30925729     0.16960
O980        O  0.30667283  0.93871834  0.34462467    -0.59960
H981        H  0.27324050  0.06941669  0.31707405     0.16980
O982        O  0.33241973  0.08402377  0.27097337    -0.60050
H983        H  0.34870739  0.09891721  0.29153889     0.43970
H984        H  0.33112735  0.92816811  0.35875688     0.43930
C985        C  0.40474154  0.05075973  0.24364325    -0.05130
C986        C  0.42875590  0.05627241  0.27883690    -0.32560
C987        C  0.45945175  0.08517442  0.28149332     0.36690
C988        C  0.46634815  0.11223981  0.24933833    -0.05490
C989        C  0.44207640  0.10697847  0.21413749    -0.32460
C990        C  0.41138829  0.07777026  0.21123136     0.36590
H991        H  0.42572937  0.03560817  0.30379675     0.16960
O992        O  0.48425771  0.08541219  0.31515830    -0.59960
H993        H  0.44834565  0.12335434  0.18698970     0.16980
O994        O  0.39153447  0.07377512  0.17487527    -0.60050
H995        H  0.40953407  0.05747127  0.15784812     0.43970
H996        H  0.46677856  0.09167251  0.33815388     0.43930
C997        C  0.35275806  0.00576698  0.20132714    -0.05130
C998        C  0.32123776  0.03353105  0.19155138    -0.32560
C999        C  0.30092385  0.03315309  0.15397737     0.36690
C1000       C  0.30874872  0.00239397  0.12651180    -0.05490
C1001       C  0.33329055  0.97065161  0.13845831    -0.32460
C1002       C  0.35840431  0.97409098  0.17209598     0.36590
H1003       H  0.31494059  0.05884485  0.21017735     0.16960
O1004       O  0.27720310  0.06528291  0.14286811    -0.59960
H1005       H  0.33987701  0.94700458  0.11695395     0.16980
O1006       O  0.39089556  0.94869056  0.17178578    -0.60050
H1007       H  0.40980690  0.96057614  0.15240341     0.43970
H1008       H  0.24947825  0.05726985  0.14984796     0.43930
C1009       C  0.33935579  0.29078804  0.99488350    -0.05130
C1010       C  0.34724751  0.33277808  0.99399424    -0.32560
C1011       C  0.31660163  0.36220153  0.99377139     0.36690
C1012       C  0.27528257  0.35117844  0.99458526    -0.05490
C1013       C  0.26728729  0.30933665  0.99551213    -0.32460
C1014       C  0.29772195  0.28005705  0.99210670     0.36590
H1015       H  0.37794550  0.34349618  0.99391686     0.16960
O1016       O  0.32774141  0.40207309  0.99367676    -0.59960
H1017       H  0.23706208  0.29795697  0.99741341     0.16980
O1018       O  0.28523259  0.24155232  0.98338880    -0.60050
H1019       H  0.28111132  0.24076678  0.95376008     0.43970
H1020       H  0.33979152  0.40684914  0.96708819     0.43930
C1021       C  0.40519480  0.26415161  0.03405805    -0.05130
C1022       C  0.40330390  0.29638058  0.06207614    -0.32560
C1023       C  0.43336267  0.30270433  0.09242637     0.36690
C1024       C  0.46378712  0.27310205  0.10010581    -0.05490
C1025       C  0.46217711  0.23860452  0.07548692    -0.32460
C1026       C  0.43639268  0.23542514  0.04177854     0.36590
H1027       H  0.37985868  0.31867929  0.06002085     0.16960
O1028       O  0.43413093  0.33960011  0.11110524    -0.59960
H1029       H  0.48411284  0.21477311  0.08033305     0.16980
O1030       O  0.44174848  0.20282350  0.01714998    -0.60050
H1031       H  0.47033697  0.20331651  0.00932151     0.43970
H1032       H  0.40868074  0.34143226  0.12606371     0.43930
C1033       C  0.36153952  0.21473120  0.99718391    -0.05130
C1034       C  0.33819022  0.20255346  0.03034385    -0.32560
C1035       C  0.32264791  0.16319438  0.03326325     0.36690
C1036       C  0.33134063  0.13458288  0.00358417    -0.05490
C1037       C  0.35628580  0.14510581  0.97237678    -0.32460
C1038       C  0.37366723  0.18318526  0.97038719     0.36590
H1039       H  0.33109746  0.22425471  0.05358594     0.16960
O1040       O  0.30077069  0.15257819  0.06604858    -0.59960
H1041       H  0.36555468  0.12219697  0.95107246     0.16980
O1042       O  0.40563342  0.18694528  0.94519859    -0.60050
H1043       H  0.42541710  0.16565196  0.95271536     0.43970
H1044       H  0.27234464  0.15806521  0.05812979     0.43930
C1045       C  0.34037399  0.73556402  0.99865909    -0.05130
C1046       C  0.31007927  0.73035361  0.96835685    -0.32560
C1047       C  0.28323261  0.69734610  0.96776068     0.36690
C1048       C  0.28288062  0.66955463  0.00004364    -0.05490
C1049       C  0.31366982  0.67414463  0.02970304    -0.32460
C1050       C  0.34434271  0.70296795  0.02629867     0.36590
H1051       H  0.30773071  0.75113566  0.94367705     0.16960
O1052       O  0.25702151  0.69272684  0.93550773    -0.59960
H1053       H  0.31682482  0.65371066  0.05464274     0.16980
O1054       O  0.37987064  0.69549300  0.04677885    -0.60050
H1055       H  0.39144837  0.67094724  0.03438616     0.43970
H1056       H  0.23871921  0.71635606  0.93612360     0.43930
C1057       C  0.39824491  0.77979768  0.03537488    -0.05130
C1058       C  0.38715911  0.76868136  0.07506587    -0.32560
C1059       C  0.41547401  0.76754316  0.10740292     0.36690
C1060       C  0.45646677  0.77533217  0.10016870    -0.05490
C1061       C  0.46359356  0.79867351  0.06590815    -0.32460
C1062       C  0.43483102  0.80232430  0.03475838     0.36590
H1063       H  0.35713965  0.75807921  0.08108964     0.16960
O1064       O  0.40344605  0.75457086  0.14434623    -0.59960
H1065       H  0.49244943  0.81269740  0.06207796     0.16980
O1066       O  0.44275823  0.82990267  0.00565317    -0.60050
H1067       H  0.42869897  0.85486852  0.01401973     0.43970
H1068       H  0.39614369  0.77949965  0.15906108     0.43930
C1069       C  0.34100933  0.81137602  0.99414592    -0.05130
C1070       C  0.32493859  0.82710190  0.03006661    -0.32560
C1071       C  0.30968320  0.86630026  0.03215174     0.36690
C1072       C  0.30648937  0.88956251  0.99734712    -0.05490
C1073       C  0.31339822  0.87137619  0.96015945    -0.32460
C1074       C  0.32919748  0.83196587  0.95801390     0.36590
H1075       H  0.32625804  0.81063826  0.05774924     0.16960
O1076       O  0.30023537  0.88254999  0.06877464    -0.59960
H1077       H  0.30886282  0.88865094  0.93279006     0.16980
O1078       O  0.33227236  0.81390922  0.92084638    -0.60050
H1079       H  0.34375670  0.83417242  0.90240002     0.43970
H1080       H  0.32626126  0.88532770  0.08373305     0.43930
C1081       C  0.33568909  0.00091634  0.72548352    -0.05130
C1082       C  0.29577429  0.99144100  0.73625453    -0.32560
C1083       C  0.26322992  0.99265159  0.70841655     0.36690
C1084       C  0.26956974  0.00291456  0.66748480    -0.05490
C1085       C  0.30970002  0.99900643  0.65555111    -0.32460
C1086       C  0.34220143  0.99953693  0.68315632     0.36590
H1087       H  0.28896529  0.98156721  0.76621013     0.16960
O1088       O  0.22642479  0.98052062  0.72165958    -0.59960
H1089       H  0.31648670  0.99735563  0.62385323     0.16980
O1090       O  0.37999863  0.99706599  0.66773126    -0.60050
H1091       H  0.38244204  0.01918930  0.64786542     0.43970
H1092       H  0.22706815  0.95059981  0.72102700     0.43570
C1093       C  0.39156600  0.05114643  0.75577650    -0.05130
C1094       C  0.39229350  0.07399201  0.71979860    -0.32560
C1095       C  0.41984619  0.10600587  0.71456246     0.36690
C1096       C  0.44925898  0.11492392  0.74512508    -0.05490
C1097       C  0.44071580  0.10048953  0.78349624    -0.32460
C1098       C  0.41204656  0.07052573  0.78935184     0.36590
H1099       H  0.37155425  0.06801395  0.69529377     0.16960
O1100       O  0.41719654  0.12782626  0.67964939    -0.59960
H1101       H  0.45886293  0.10979291  0.80934867     0.16980
O1102       O  0.40480109  0.06198433  0.82868942    -0.60050
H1103       H  0.38619306  0.08342370  0.83776826     0.43970
H1104       H  0.39818661  0.15008683  0.68528802     0.43930
C1105       C  0.35522035  0.00507876  0.80231231    -0.05130
C1106       C  0.32194985  0.02916927  0.81379419    -0.32560
C1107       C  0.30856506  0.03012474  0.85356673     0.36690
C1108       C  0.32988140  0.00885969  0.88357113    -0.05490
C1109       C  0.36359804  0.98635095  0.87317120    -0.32460
C1110       C  0.37804104  0.98664286  0.83445921     0.36590
H1111       H  0.30668784  0.04814022  0.79179867     0.16960
O1112       O  0.27655384  0.05412569  0.86313510    -0.59960
H1113       H  0.38155501  0.97110703  0.89615826     0.16980
O1114       O  0.41728216  0.97434896  0.83023704    -0.60050
H1115       H  0.43452146  0.99470948  0.84417317     0.43970
H1116       H  0.25242771  0.03700922  0.85827682     0.43930
C1117       C  0.53882018  0.76486528  0.90447835    -0.05130
C1118       C  0.53577773  0.79319579  0.93560396    -0.32560
C1119       C  0.56403103  0.79550407  0.96700260     0.36690
C1120       C  0.59726594  0.76864824  0.96921480    -0.05490
C1121       C  0.60523822  0.74642744  0.93419512    -0.32460
C1122       C  0.57708625  0.74511560  0.90171421     0.36590
H1123       H  0.51096233  0.81349141  0.93745998     0.16960
O1124       O  0.55764028  0.82336550  0.99663783    -0.59960
H1125       H  0.63303964  0.72973184  0.93173580     0.16980
O1126       O  0.58766890  0.72551077  0.86700415    -0.60050
H1127       H  0.59442097  0.69738927  0.87484395     0.43970
H1128       H  0.53286434  0.81457275  0.01000802     0.43930
C1129       C  0.46085419  0.76065048  0.89942854    -0.05130
C1130       C  0.43962815  0.72694458  0.91437802    -0.32560
C1131       C  0.41091371  0.72999911  0.94456506     0.36690
C1132       C  0.39730140  0.76816045  0.95845994    -0.05490
C1133       C  0.41294981  0.80179783  0.93754172    -0.32460
C1134       C  0.44368836  0.79871554  0.90905010     0.36590
H1135       H  0.44479937  0.69678023  0.90386581     0.16960
O1136       O  0.39784880  0.69453436  0.96077285    -0.59960
H1137       H  0.40339805  0.83200742  0.94486957     0.16980
O1138       O  0.45663378  0.83341438  0.89061843    -0.60050
H1139       H  0.46153951  0.85392702  0.91199664     0.43970
H1140       H  0.37890039  0.68279041  0.94040357     0.43930
C1141       C  0.50635025  0.71112044  0.86086537    -0.05130
C1142       C  0.51368499  0.68191799  0.89124900    -0.32560
C1143       C  0.51802125  0.64115380  0.88283818     0.36690
C1144       C  0.51512763  0.62724553  0.84285837    -0.05490
C1145       C  0.51076165  0.65564732  0.81189909    -0.32460
C1146       C  0.50709919  0.69714858  0.82021077     0.36590
H1147       H  0.51535979  0.69097081  0.92262720     0.16960
O1148       O  0.52431918  0.61523194  0.91447628    -0.59960
H1149       H  0.51033941  0.64575108  0.78079405     0.16980
O1150       O  0.50690558  0.72313682  0.78820373    -0.60050
H1151       H  0.48312767  0.71571705  0.77115330     0.43970
H1152       H  0.55387087  0.61522601  0.91948340     0.43930
C1153       C  0.75840550  0.47663299  0.91078574    -0.05130
C1154       C  0.72700654  0.47368909  0.93872724    -0.32560
C1155       C  0.72510603  0.44245120  0.96721136     0.36690
C1156       C  0.75646229  0.41360402  0.97113960    -0.05490
C1157       C  0.78986889  0.41930408  0.94588430    -0.32460
C1158       C  0.79115299  0.44960141  0.91641402     0.36590
H1159       H  0.70241144  0.49515598  0.93723644     0.16960
O1160       O  0.69253849  0.44060829  0.99192245    -0.59960
H1161       H  0.81709955  0.40201321  0.94987600     0.16980
O1162       O  0.82572900  0.45316082  0.89491469    -0.60050
H1163       H  0.84720049  0.46121626  0.91455875     0.43970
H1164       H  0.66810919  0.44135219  0.97418746     0.43930
C1165       C  0.75633362  0.55082148  0.90347949    -0.05130
C1166       C  0.72428739  0.57908853  0.90541520    -0.32560
C1167       C  0.72508593  0.61238979  0.93236323     0.36690
C1168       C  0.75543071  0.61496104  0.96303274    -0.05490
C1169       C  0.78848434  0.58816207  0.95895645    -0.32460
C1170       C  0.78988624  0.55833932  0.92930919     0.36590
H1171       H  0.69748648  0.57570887  0.88697609     0.16960
O1172       O  0.69732504  0.64263866  0.92681479    -0.59960
H1173       H  0.81308630  0.58828508  0.98079441     0.16980
O1174       O  0.82322796  0.53401248  0.92849995    -0.60050
H1175       H  0.84469712  0.55072766  0.91669459     0.43970
H1176       H  0.67047858  0.62949428  0.92530772     0.43930
C1177       C  0.71512612  0.50559452  0.85258498    -0.05130
C1178       C  0.69226120  0.46965107  0.85475459    -0.32560
C1179       C  0.65387604  0.46696906  0.83762044     0.36690
C1180       C  0.63751028  0.49987374  0.81661840    -0.05490
C1181       C  0.66229052  0.53250802  0.80733822    -0.32460
C1182       C  0.70160412  0.53491315  0.82404804     0.36590
H1183       H  0.70321002  0.44326548  0.87057089     0.16960
O1184       O  0.63139316  0.43274970  0.84348815    -0.59960
H1185       H  0.65030299  0.55746034  0.78980967     0.16980
O1186       O  0.72590743  0.56674594  0.81397089    -0.60050
H1187       H  0.71048010  0.59176207  0.81929492     0.43970
H1188       H  0.62321330  0.43384340  0.87199236     0.43930
C1189       C  0.23420938  0.50850900  0.83189073    -0.05130
C1190       C  0.21634659  0.47232852  0.81778770    -0.32560
C1191       C  0.18479435  0.47129959  0.78941865     0.36690
C1192       C  0.16925900  0.50735972  0.77212270    -0.05490
C1193       C  0.19059111  0.54335705  0.78199950    -0.32460
C1194       C  0.22308917  0.54401785  0.81052895     0.36590
H1195       H  0.22617695  0.44341651  0.82894720     0.16960
O1196       O  0.17097050  0.43393907  0.77805743    -0.59960
H1197       H  0.18230758  0.57125559  0.76708392     0.16980
O1198       O  0.24409632  0.57927403  0.81695213    -0.60050
H1199       H  0.22400672  0.59984843  0.82474256     0.43970
H1200       H  0.15546563  0.42386763  0.80113997     0.43930
C1201       C  0.26216275  0.54656380  0.89724598    -0.05130
C1202       C  0.29695575  0.56459986  0.91590378    -0.32560
C1203       C  0.29500693  0.59207221  0.94852513     0.36690
C1204       C  0.25750389  0.60731055  0.96085303    -0.05490
C1205       C  0.22540879  0.59956497  0.93269108    -0.32460
C1206       C  0.22570035  0.56704707  0.90538471     0.36590
H1207       H  0.32674119  0.55879452  0.90558995     0.16960
O1208       O  0.33027253  0.60807456  0.96404319    -0.59960
H1209       H  0.19868958  0.61796748  0.93132718     0.16980
O1210       O  0.19049925  0.55809467  0.88463208    -0.60050
H1211       H  0.16895462  0.55628970  0.90475445     0.43970
H1212       H  0.34887717  0.58509351  0.96902888     0.43930
C1213       C  0.25281649  0.46911391  0.89477892    -0.05130
C1214       C  0.21842251  0.46998692  0.91858797    -0.32560
C1215       C  0.21089817  0.43994489  0.94695409     0.36690
C1216       C  0.23902461  0.40801217  0.95323321    -0.05490
C1217       C  0.26615318  0.40125074  0.92204093    -0.32460
C1218       C  0.27213009  0.43054950  0.89228192     0.36590
H1219       H  0.19770161  0.49465832  0.91710006     0.16960
O1220       O  0.17820539  0.44449915  0.97100710    -0.59960
H1221       H  0.28385407  0.37392380  0.92086561     0.16980
O1222       O  0.29742156  0.42125383  0.86150458    -0.60050
H1223       H  0.28286221  0.40096149  0.84468612     0.43970
H1224       H  0.18264509  0.46995430  0.98629341     0.43930
C1225       C  0.30906739  0.50282088  0.85525644    -0.05130
C1226       C  0.32101242  0.51252514  0.81574937    -0.32560
C1227       C  0.36184881  0.51221678  0.80504052     0.36690
C1228       C  0.39188562  0.50152418  0.83363250    -0.05490
C1229       C  0.38001134  0.48933477  0.87184567    -0.32460
C1230       C  0.34007115  0.49084332  0.88318739     0.36590
H1231       H  0.29918426  0.52170690  0.79302583     0.16960
O1232       O  0.37196922  0.52391354  0.76707374    -0.59960
H1233       H  0.40210638  0.47988302  0.89437688     0.16980
O1234       O  0.33164166  0.48166110  0.92246926    -0.60050
H1235       H  0.34819845  0.49996462  0.93979399     0.43970
H1236       H  0.37035499  0.49895239  0.75056155     0.43930
C1237       C  0.49232807  0.17042447  0.77204418    -0.05130
C1238       C  0.51764218  0.16801854  0.80650558    -0.32560
C1239       C  0.51718726  0.19667510  0.83749976     0.36690
C1240       C  0.49039398  0.23041427  0.83578889    -0.05490
C1241       C  0.46312314  0.23138386  0.80245682    -0.32460
C1242       C  0.46326340  0.20181199  0.77179799     0.36590
H1243       H  0.53736228  0.14257999  0.81136950     0.16960
O1244       O  0.54393310  0.19054469  0.86888799    -0.59960
H1245       H  0.44181085  0.25598171  0.79952765     0.16980
O1246       O  0.43517982  0.20440953  0.74102355    -0.60050
H1247       H  0.40974304  0.19440928  0.75244321     0.43970
H1248       H  0.53382030  0.16665172  0.88346666     0.43930
C1249       C  0.52951781  0.26287512  0.89624248    -0.05130
C1250       C  0.56997104  0.27474896  0.89015408    -0.32560
C1251       C  0.59977386  0.27063776  0.92102823     0.36690
C1252       C  0.58827390  0.26526627  0.96159762    -0.05490
C1253       C  0.54804775  0.25324758  0.96657411    -0.32460
C1254       C  0.52304766  0.24414546  0.93385214     0.36590
H1255       H  0.58007828  0.28514195  0.86180418     0.16960
O1256       O  0.63951083  0.27393643  0.91130679    -0.59960
H1257       H  0.53568219  0.24805997  0.99574680     0.16980
O1258       O  0.49039035  0.21972366  0.93979971    -0.60050
H1259       H  0.50126560  0.19191009  0.94142842     0.43970
H1260       H  0.64814982  0.24602638  0.90499319     0.43930
C1261       C  0.45513220  0.27384143  0.89272309    -0.05130
C1262       C  0.41751638  0.25451605  0.88737604    -0.32560
C1263       C  0.38811615  0.25752524  0.91740892     0.36690
C1264       C  0.40006483  0.27000822  0.95691048    -0.05490
C1265       C  0.43346592  0.29610962  0.95902696    -0.32460
C1266       C  0.45831954  0.30119554  0.92599180     0.36590
H1267       H  0.41045539  0.23732667  0.86051801     0.16960
O1268       O  0.35050471  0.24188704  0.90985747    -0.59960
H1269       H  0.44076067  0.31278912  0.98625164     0.16980
O1270       O  0.48822491  0.33000879  0.92779933    -0.60050
H1271       H  0.50374975  0.32555260  0.95325176     0.43970
H1272       H  0.33375450  0.26538984  0.90177031     0.43930
C1273       C  0.50324510  0.38415834  0.80509260    -0.05130
C1274       C  0.53250157  0.35475943  0.79776901    -0.32560
C1275       C  0.52720814  0.31490615  0.81202515     0.36690
C1276       C  0.49527900  0.30662013  0.83853361    -0.05490
C1277       C  0.46267849  0.33449652  0.83720189    -0.32460
C1278       C  0.46665192  0.37261161  0.82108804     0.36590
H1279       H  0.55966008  0.36294409  0.78233650     0.16960
O1280       O  0.55093345  0.28397824  0.79809998    -0.59960
H1281       H  0.43380318  0.32830948  0.85006735     0.16980
O1282       O  0.43619465  0.40014178  0.82580844    -0.60050
H1283       H  0.42140440  0.40056867  0.79956107     0.43970
H1284       H  0.57808000  0.29520214  0.79324641     0.43930
C1285       C  0.74982805  0.96714269  0.39685546    -0.05130
C1286       C  0.75912086  0.92696868  0.38725984    -0.32560
C1287       C  0.76046704  0.89751268  0.41788796     0.36690
C1288       C  0.74285526  0.90581301  0.45596852    -0.05490
C1289       C  0.71891703  0.94067582  0.45693079    -0.32460
C1290       C  0.72512519  0.97227849  0.43077747     0.36590
H1291       H  0.77243005  0.92000051  0.35862830     0.16960
O1292       O  0.78024485  0.86246447  0.40962653    -0.59960
H1293       H  0.69841347  0.94592294  0.48124859     0.16980
O1294       O  0.70810344  0.00834637  0.44043480    -0.60050
H1295       H  0.71782967  0.01453901  0.46824771     0.43970
H1296       H  0.76258062  0.84780140  0.39002865     0.43930
C1297       C  0.74487615  0.91135796  0.53117199    -0.05130
C1298       C  0.71267309  0.91879407  0.55762471    -0.32560
C1299       C  0.71343483  0.95037194  0.58634867     0.36690
C1300       C  0.74770535  0.97573120  0.59126117    -0.05490
C1301       C  0.77851674  0.96990413  0.56306078    -0.32460
C1302       C  0.77719077  0.93938612  0.53349109     0.36590
H1303       H  0.68489893  0.90211943  0.55477737     0.16960
O1304       O  0.67915422  0.95698797  0.60746747    -0.59960
H1305       H  0.80468665  0.98909639  0.56405793     0.16980
O1306       O  0.80714633  0.93787965  0.50563669    -0.60050
H1307       H  0.83302466  0.93621410  0.52099886     0.43970
H1308       H  0.66351152  0.97703755  0.59147784     0.43930
C1309       C  0.70196827  0.85545883  0.49505891    -0.05130
C1310       C  0.67506604  0.85647344  0.46128970    -0.32560
C1311       C  0.63680207  0.84024529  0.46287863     0.36690
C1312       C  0.62434799  0.82150387  0.49799100    -0.05490
C1313       C  0.65208507  0.81452332  0.52951337    -0.32460
C1314       C  0.69124670  0.83048037  0.52779427     0.36590
H1315       H  0.68219332  0.87111847  0.43340121     0.16960
O1316       O  0.61019327  0.84661980  0.43129454    -0.59960
H1317       H  0.64263616  0.79933822  0.55652585     0.16980
O1318       O  0.71819621  0.82329487  0.55890271    -0.60050
H1319       H  0.70674629  0.83623039  0.58302941     0.43970
H1320       H  0.61124762  0.82166349  0.41479925     0.43930
C1321       C  0.50234406  0.84797150  0.77778467    -0.05130
C1322       C  0.46893605  0.82209922  0.78290211    -0.32560
C1323       C  0.46785455  0.79297374  0.81368495     0.36690
C1324       C  0.50196621  0.78640568  0.83925695    -0.05490
C1325       C  0.53730813  0.80752776  0.82970724    -0.32460
C1326       C  0.53822877  0.83664106  0.79924640     0.36590
H1327       H  0.44294227  0.82444682  0.76284129     0.16960
O1328       O  0.43304821  0.77141680  0.81891382    -0.59960
H1329       H  0.56559541  0.80098419  0.84486416     0.16980
O1330       O  0.57544191  0.84991665  0.78781628    -0.60050
H1331       H  0.58864622  0.86183929  0.81216506     0.43970
H1332       H  0.42858369  0.75553697  0.79388254     0.43930
C1333       C  0.60258799  0.97046920  0.75071602    -0.05130
C1334       C  0.58179272  0.95743282  0.78526191    -0.32560
C1335       C  0.54909757  0.93054154  0.78304411     0.36690
C1336       C  0.53929037  0.90971031  0.74700206    -0.05490
C1337       C  0.56268440  0.91927601  0.71318365    -0.32460
C1338       C  0.59203631  0.95001753  0.71414658     0.36590
H1339       H  0.58795652  0.97000912  0.81450931     0.16960
O1340       O  0.52557191  0.92596985  0.81621653    -0.59960
H1341       H  0.55508090  0.90693817  0.68389460     0.16980
O1342       O  0.60558409  0.96369912  0.67795097    -0.60050
H1343       H  0.62079869  0.94092608  0.66622072     0.43970
H1344       H  0.54337694  0.91456814  0.83767192     0.43930
C1345       C  0.40154258  0.97250499  0.75042190    -0.05130
C1346       C  0.43499222  0.97768605  0.72603337    -0.32560
C1347       C  0.46364158  0.94697027  0.72068924     0.36690
C1348       C  0.46460238  0.91252945  0.74634995    -0.05490
C1349       C  0.42975329  0.90683093  0.76947609    -0.32460
C1350       C  0.39632107  0.93283811  0.76558496     0.36590
H1351       H  0.43768050  0.00469863  0.70837438     0.16960
O1352       O  0.48836683  0.94904103  0.68814411    -0.59960
H1353       H  0.42645926  0.88196360  0.78966310     0.16980
O1354       O  0.36060445  0.92126637  0.78192162    -0.60050
H1355       H  0.34392379  0.91137412  0.75882329     0.43970
H1356       H  0.49759103  0.97735342  0.68572908     0.43930
C1357       C  0.49836751  0.85703842  0.70462877    -0.05130
C1358       C  0.53247947  0.83457122  0.69292372    -0.32560
C1359       C  0.53423603  0.81703194  0.65469356     0.36690
C1360       C  0.50050352  0.81876947  0.62884038    -0.05490
C1361       C  0.46437043  0.83412952  0.64280678    -0.32460
C1362       C  0.46272913  0.85306640  0.68021048     0.36590
H1363       H  0.55933717  0.83398763  0.71193155     0.16960
O1364       O  0.57008805  0.80211493  0.64145155    -0.59960
H1365       H  0.43785833  0.83448440  0.62313912     0.16980
O1366       O  0.42584630  0.86627136  0.69246482    -0.60050
H1367       H  0.41831795  0.88887139  0.67426062     0.43970
H1368       H  0.56906939  0.77273497  0.64694857     0.43930
C1369       C  0.50402666  0.84780206  0.22807726    -0.05130
C1370       C  0.51767068  0.85726870  0.18932303    -0.32560
C1371       C  0.51507636  0.82962610  0.15695720     0.36690
C1372       C  0.49782380  0.79083589  0.16197006    -0.05490
C1373       C  0.48030691  0.78332216  0.19944235    -0.32460
C1374       C  0.48378255  0.81014501  0.23197942     0.36590
H1375       H  0.53015457  0.88685589  0.18372976     0.16960
O1376       O  0.52957190  0.84120653  0.12053873    -0.59960
H1377       H  0.46281332  0.75625757  0.20402227     0.16980
O1378       O  0.46409475  0.80001709  0.26635743    -0.60050
H1379       H  0.47800231  0.77568619  0.27709533     0.43970
H1380       H  0.51166659  0.86335677  0.11106631     0.43930
C1381       C  0.54243002  0.90784849  0.26735507    -0.05130
C1382       C  0.53809115  0.94367048  0.29003746    -0.32560
C1383       C  0.56289615  0.97696043  0.28412068     0.36690
C1384       C  0.59866847  0.97292381  0.26183318    -0.05490
C1385       C  0.60999473  0.93261538  0.25263100    -0.32460
C1386       C  0.58106157  0.90106105  0.25151031     0.36590
H1387       H  0.51103957  0.94875150  0.30685817     0.16960
O1388       O  0.55113092  0.01298287  0.30052849    -0.59960
H1389       H  0.63959739  0.92666847  0.24098548     0.16980
O1390       O  0.59145251  0.86401042  0.23636382    -0.60050
H1391       H  0.60043481  0.86889043  0.20853532     0.43970
H1392       H  0.52629159  0.02087843  0.28538316     0.43930
C1393       C  0.46839744  0.91035440  0.24715187    -0.05130
C1394       C  0.47746353  0.94675603  0.22786864    -0.32560
C1395       C  0.45071544  0.97899902  0.22700484     0.36690
C1396       C  0.41105072  0.97515981  0.24285672    -0.05490
C1397       C  0.39900633  0.93452483  0.24970401    -0.32460
C1398       C  0.42697355  0.90262512  0.25222601     0.36590
H1399       H  0.50684862  0.95162076  0.21529351     0.16960
O1400       O  0.46374418  0.01307293  0.20804886    -0.59960
H1401       H  0.36739498  0.92713758  0.25200895     0.16980
O1402       O  0.41361138  0.86489262  0.26197888    -0.60050
H1403       H  0.40326440  0.85313885  0.23628286     0.43970
H1404       H  0.46135083  0.00717240  0.17882752     0.43930
C1405       C  0.49794960  0.86411079  0.30405298    -0.05130
C1406       C  0.47074988  0.88161733  0.33115723    -0.32560
C1407       C  0.46876159  0.86880632  0.37083259     0.36690
C1408       C  0.49508225  0.83886113  0.38535691    -0.05490
C1409       C  0.52208043  0.82073516  0.35930902    -0.32460
C1410       C  0.52448606  0.83379977  0.31936196     0.36590
H1411       H  0.45236130  0.90727902  0.32312051     0.16960
O1412       O  0.44228216  0.88747333  0.39596554    -0.59960
H1413       H  0.54313334  0.79823811  0.37056576     0.16980
O1414       O  0.55299366  0.81677383  0.29540791    -0.60050
H1415       H  0.57926841  0.82649658  0.30641330     0.43970
H1416       H  0.41788789  0.87020031  0.39528361     0.43930
C1417       C  0.22632157  0.85759650  0.50626825    -0.05130
C1418       C  0.23356072  0.81914726  0.52318397    -0.32560
C1419       C  0.20321841  0.79027833  0.52712990     0.36690
C1420       C  0.16410507  0.79605867  0.50937026    -0.05490
C1421       C  0.15604605  0.83598577  0.49612838    -0.32460
C1422       C  0.18524970  0.86688387  0.49850710     0.36590
H1423       H  0.26252545  0.81149416  0.53647959     0.16960
O1424       O  0.21270761  0.75708842  0.54988975    -0.59960
H1425       H  0.12710549  0.84470682  0.48445597     0.16980
O1426       O  0.17324467  0.90601515  0.49199617    -0.60050
H1427       H  0.16476260  0.91608506  0.51861862     0.43970
H1428       H  0.20633455  0.76484514  0.57787594     0.43930
C1429       C  0.25290379  0.92251094  0.53596865    -0.05130
C1430       C  0.24469989  0.90987340  0.57574474    -0.32560
C1431       C  0.24150553  0.93760049  0.60781294     0.36690
C1432       C  0.24200184  0.97986436  0.60051399    -0.05490
C1433       C  0.24745941  0.99176952  0.56083040    -0.32460
C1434       C  0.25539803  0.96492032  0.53028191     0.36590
H1435       H  0.24367748  0.87802679  0.58277701     0.16960
O1436       O  0.23720364  0.92309732  0.64608907    -0.59960
H1437       H  0.24796762  0.02278503  0.55205379     0.16980
O1438       O  0.26779854  0.98237476  0.49592950    -0.60050
H1439       H  0.29485376  0.99385932  0.50232725     0.43970
H1440       H  0.21041952  0.90988219  0.64624732     0.43930
C1441       C  0.25738794  0.96913877  0.39756119    -0.05130
C1442       C  0.29350060  0.96315086  0.42005474    -0.32560
C1443       C  0.29837866  0.93167445  0.44779610     0.36690
C1444       C  0.26421450  0.90881911  0.45941772    -0.05490
C1445       C  0.23202131  0.90838013  0.43096105    -0.32460
C1446       C  0.22713298  0.93901587  0.40197342     0.36590
H1447       H  0.31814646  0.98429413  0.41705236     0.16960
O1448       O  0.33414180  0.93013612  0.46910683    -0.59960
H1449       H  0.20878603  0.88585217  0.43172929     0.16980
O1450       O  0.19111791  0.94033219  0.38117895    -0.60050
H1451       H  0.17116042  0.95057548  0.40044840     0.43970
H1452       H  0.35273124  0.91505898  0.45161661     0.43930
C1453       C  0.38108782  0.83493186  0.51363020    -0.05130
C1454       C  0.36897338  0.86163008  0.54343751    -0.32560
C1455       C  0.33119925  0.87947765  0.54193910     0.36690
C1456       C  0.30260848  0.86846846  0.51099768    -0.05490
C1457       C  0.31440785  0.83835242  0.48312482    -0.32460
C1458       C  0.35327913  0.82195442  0.48408608     0.36590
H1459       H  0.39054691  0.87187573  0.56626201     0.16960
O1460       O  0.32516330  0.91006398  0.56892222    -0.59960
H1461       H  0.29386697  0.82928614  0.45896021     0.16980
O1462       O  0.36485432  0.79657229  0.45381660    -0.60050
H1463       H  0.35850380  0.76904626  0.46343620     0.43970
H1464       H  0.33741416  0.93438605  0.55687232     0.43930
C1465       C  0.83983919  0.78714953  0.49588778    -0.05130
C1466       C  0.83792572  0.81633499  0.52676880    -0.32560
C1467       C  0.80737782  0.84537644  0.52837776     0.36690
C1468       C  0.77672627  0.84711891  0.49783884    -0.05490
C1469       C  0.77499939  0.81386395  0.47126237    -0.32460
C1470       C  0.80573343  0.78507910  0.46936299     0.36590
H1471       H  0.85858925  0.81587936  0.55220798     0.16960
O1472       O  0.80552683  0.86786896  0.56295253    -0.59960
H1473       H  0.74937286  0.81017465  0.45086682     0.16980
O1474       O  0.80155333  0.75461606  0.44147436    -0.60050
H1475       H  0.77943057  0.73729626  0.45114714     0.43970
H1476       H  0.83209460  0.88133149  0.56619338     0.43930
C1477       C  0.96541112  0.75398319  0.40380526    -0.05130
C1478       C  0.92607366  0.76637274  0.39246004    -0.32560
C1479       C  0.89643129  0.77110847  0.42188789     0.36690
C1480       C  0.90173923  0.75247246  0.46011761    -0.05490
C1481       C  0.93619957  0.72792862  0.46482934    -0.32460
C1482       C  0.96900901  0.73195673  0.44029427     0.36590
H1483       H  0.92048605  0.77912572  0.36289107     0.16960
O1484       O  0.86372881  0.79451745  0.41244789    -0.59960
H1485       H  0.93986066  0.70813813  0.49044993     0.16980
O1486       O  0.00408567  0.71355173  0.45276649    -0.60050
H1487       H  0.01209558  0.72716265  0.47832310     0.43970
H1488       H  0.87175826  0.82241325  0.42002947     0.43930
C1489       C  0.90267900  0.75799235  0.53439361    -0.05130
C1490       C  0.91068698  0.72551031  0.56105698    -0.32560
C1491       C  0.94174832  0.72657692  0.59038966     0.36690
C1492       C  0.96553595  0.76182163  0.59592840    -0.05490
C1493       C  0.95964999  0.79301043  0.56736555    -0.32460
C1494       C  0.92922654  0.79148705  0.53742165     0.36590
H1495       H  0.89581873  0.69679918  0.55717762     0.16960
O1496       O  0.95175071  0.69096010  0.60906404    -0.59960
H1497       H  0.97902309  0.81930407  0.56848029     0.16980
O1498       O  0.92717926  0.82186770  0.50939142    -0.60050
H1499       H  0.92017111  0.84670121  0.52444200     0.43970
H1500       H  0.92716664  0.68196257  0.62287500     0.43930
C1501       C  0.84941105  0.71324317  0.49822364    -0.05130
C1502       C  0.85070543  0.68533200  0.46596575    -0.32560
C1503       C  0.83347762  0.64758304  0.46890176     0.36690
C1504       C  0.81501859  0.63636326  0.50449186    -0.05490
C1505       C  0.80864156  0.66482069  0.53471207    -0.32460
C1506       C  0.82427066  0.70383572  0.53098027     0.36590
H1507       H  0.86568929  0.69172755  0.43821560     0.16960
O1508       O  0.83877243  0.62012509  0.43843295    -0.59960
H1509       H  0.79409448  0.65610570  0.56220044     0.16980
O1510       O  0.81874825  0.73100893  0.56157632    -0.60050
H1511       H  0.79162054  0.74262069  0.55637825     0.43970
H1512       H  0.81339425  0.62089861  0.42215988     0.43930
C1513       C  0.84843323  0.50785008  0.78402851    -0.05130
C1514       C  0.82297450  0.47455375  0.79077835    -0.32560
C1515       C  0.79372423  0.47491180  0.82058652     0.36690
C1516       C  0.78856636  0.50923410  0.84563836    -0.05490
C1517       C  0.81088178  0.54387560  0.83593122    -0.32460
C1518       C  0.83946214  0.54388266  0.80534175     0.36590
H1519       H  0.82633627  0.44729989  0.77316525     0.16960
O1520       O  0.77119521  0.44071835  0.82590038    -0.59960
H1521       H  0.80486375  0.57242144  0.85041733     0.16980
O1522       O  0.85495975  0.58033785  0.79383623    -0.60050
H1523       H  0.86302470  0.59451362  0.81901150     0.43970
H1524       H  0.75284443  0.43907885  0.80198251     0.43930
C1525       C  0.90889897  0.46802976  0.75163629    -0.05130
C1526       C  0.93507075  0.46268944  0.71902451    -0.32560
C1527       C  0.96545328  0.43340879  0.71902820     0.36690
C1528       C  0.97091138  0.40677733  0.75196761    -0.05490
C1529       C  0.94524627  0.41250946  0.78495757    -0.32460
C1530       C  0.91534092  0.44249567  0.78543701     0.36590
H1531       H  0.93238223  0.48224495  0.69306649     0.16960
O1532       O  0.99108643  0.43212589  0.68718931    -0.59960
H1533       H  0.94998871  0.39639796  0.81275148     0.16980
O1534       O  0.89458502  0.44751311  0.82031456    -0.60050
H1535       H  0.91477075  0.45518316  0.84142846     0.43970
H1536       H  0.97430964  0.42458801  0.66327637     0.43930
C1537       C  0.91000554  0.54122953  0.74921319    -0.05130
C1538       C  0.91913744  0.56304556  0.71386149    -0.32560
C1539       C  0.94865959  0.59371866  0.71356561     0.36690
C1540       C  0.97132056  0.60286400  0.74901252    -0.05490
C1541       C  0.96580664  0.57720293  0.78234792    -0.32460
C1542       C  0.93518033  0.54847238  0.78334937     0.36590
H1543       H  0.90511749  0.55529839  0.68526159     0.16960
O1544       O  0.95773793  0.61138846  0.67757922    -0.59960
H1545       H  0.98426792  0.58082768  0.80934247     0.16980
O1546       O  0.93096086  0.52652902  0.81789905    -0.60050
H1547       H  0.92104392  0.54579433  0.83831068     0.43970
H1548       H  0.93185749  0.62063114  0.66534118     0.43930
C1549       C  0.85222054  0.50343574  0.71070554    -0.05130
C1550       C  0.83203320  0.53891503  0.69781400    -0.32560
C1551       C  0.81397646  0.54129651  0.65939327     0.36690
C1552       C  0.81292909  0.50709274  0.63447030    -0.05490
C1553       C  0.82548217  0.46998389  0.65010110    -0.32460
C1554       C  0.84445999  0.46759501  0.68807027     0.36590
H1555       H  0.83406770  0.56615672  0.71581932     0.16960
O1556       O  0.80162613  0.57807528  0.64487838    -0.59960
H1557       H  0.82345456  0.44310019  0.63147861     0.16980
O1558       O  0.85424892  0.43011056  0.70287187    -0.60050
H1559       H  0.87265844  0.41783562  0.68320892     0.43970
H1560       H  0.77234743  0.57918891  0.64989939     0.43930
C1561       C  0.77164594  0.51145097  0.16486143    -0.05130
C1562       C  0.80248260  0.54039178  0.16472459    -0.32560
C1563       C  0.83114702  0.54406239  0.19619751     0.36690
C1564       C  0.83265439  0.51577655  0.22876172    -0.05490
C1565       C  0.80222739  0.48598083  0.22815302    -0.32460
C1566       C  0.77247481  0.48368129  0.19736702     0.36590
H1567       H  0.80599475  0.56032495  0.13950439     0.16960
O1568       O  0.85720779  0.57594811  0.19378382    -0.59960
H1569       H  0.80247900  0.46290208  0.25118388     0.16980
O1570       O  0.74392386  0.45399837  0.19966536    -0.60050
H1571       H  0.75845482  0.42835669  0.19473132     0.43970
H1572       H  0.87391994  0.57041898  0.17002638     0.43930
C1573       C  0.88853690  0.46820456  0.25613691    -0.05130
C1574       C  0.90660339  0.44787283  0.28941541    -0.32560
C1575       C  0.93686228  0.41886772  0.28472522     0.36690
C1576       C  0.94890653  0.40717945  0.24580010    -0.05490
C1577       C  0.92007836  0.41573723  0.21490335    -0.32460
C1578       C  0.89150895  0.44682013  0.21892704     0.36590
H1579       H  0.89837572  0.45382145  0.31985288     0.16960
O1580       O  0.95565613  0.40381189  0.31871451    -0.59960
H1581       H  0.92001653  0.40015260  0.18639808     0.16980
O1582       O  0.86810733  0.45668135  0.18573194    -0.60050
H1583       H  0.88656274  0.46147834  0.16321391     0.43970
H1584       H  0.93617729  0.38465924  0.33034817     0.43930
C1585       C  0.90058531  0.54579215  0.25313536    -0.05130
C1586       C  0.89628641  0.58438991  0.27139399    -0.32560
C1587       C  0.92628832  0.61443497  0.26970507     0.36690
C1588       C  0.96138760  0.60817888  0.24658380    -0.05490
C1589       C  0.96033554  0.57319619  0.22215214    -0.32460
C1590       C  0.93270350  0.54207815  0.22631274     0.36590
H1591       H  0.86943875  0.59136954  0.28791023     0.16960
O1592       O  0.91797608  0.65133281  0.28646749    -0.59960
H1593       H  0.97933110  0.56940113  0.19713191     0.16980
O1594       O  0.93659535  0.50967303  0.20121490    -0.60050
H1595       H  0.92788518  0.51927764  0.17414840     0.43970
H1596       H  0.91511103  0.64644828  0.31570296     0.43930
C1597       C  0.85509880  0.51724548  0.30557000    -0.05130
C1598       C  0.81429657  0.51763241  0.31742450    -0.32560
C1599       C  0.80375522  0.51841786  0.35835269     0.36690
C1600       C  0.83383319  0.52125293  0.38878860    -0.05490
C1601       C  0.87381784  0.52549687  0.37716565    -0.32460
C1602       C  0.88473948  0.52324642  0.33702770     0.36590
H1603       H  0.78983285  0.51692684  0.29564501     0.16960
O1604       O  0.76390725  0.51672761  0.36803082    -0.59960
H1605       H  0.89773810  0.52945190  0.39953412     0.16980
O1606       O  0.92510699  0.52636818  0.32877185    -0.60050
H1607       H  0.93942659  0.50553304  0.34501637     0.43970
H1608       H  0.75725246  0.48754922  0.36856058     0.43930
C1609       C  0.84248410  0.23618151  0.49529985    -0.05130
C1610       C  0.85301419  0.19765050  0.48027061    -0.32560
C1611       C  0.82591555  0.16529675  0.47793493     0.36690
C1612       C  0.78684623  0.16850984  0.49442193    -0.05490
C1613       C  0.77954620  0.20369374  0.51654956    -0.32460
C1614       C  0.80370005  0.23831564  0.51314880     0.36590
H1615       H  0.88303325  0.19166252  0.46992923     0.16960
O1616       O  0.84032367  0.12960606  0.46311551    -0.59960
H1617       H  0.75225722  0.20602514  0.53361433     0.16980
O1618       O  0.78612205  0.27396961  0.52368192    -0.60050
H1619       H  0.78047707  0.27188102  0.55280429     0.43970
H1620       H  0.84181502  0.13346377  0.43359773     0.43930
C1621       C  0.90228243  0.26824885  0.53648735    -0.05130
C1622       C  0.90353569  0.23327108  0.56061608    -0.32560
C1623       C  0.93565990  0.22550109  0.58802678     0.36690
C1624       C  0.96680286  0.25469583  0.59484327    -0.05490
C1625       C  0.96392964  0.29056278  0.57225655    -0.32460
C1626       C  0.93274566  0.29774054  0.54431089     0.36590
H1627       H  0.88190663  0.20932682  0.55572861     0.16960
O1628       O  0.93887864  0.18697703  0.60276406    -0.59960
H1629       H  0.98736027  0.31319642  0.57551401     0.16980
O1630       O  0.93552639  0.33167149  0.52101384    -0.60050
H1631       H  0.92683775  0.35428703  0.53841149     0.43970
H1632       H  0.91346094  0.18142603  0.61683831     0.43930
C1633       C  0.90526799  0.26242444  0.46036889    -0.05130
C1634       C  0.94430916  0.24934124  0.46874138    -0.32560
C1635       C  0.97414463  0.24927778  0.44079457     0.36690
C1636       C  0.96674382  0.25968308  0.39938546    -0.05490
C1637       C  0.92489009  0.26304987  0.38911063    -0.32460
C1638       C  0.89451930  0.26279622  0.41878115     0.36590
H1639       H  0.95317813  0.23733613  0.49770893     0.16960
O1640       O  0.00972854  0.23320754  0.45447400    -0.59960
H1641       H  0.91423348  0.26532859  0.35868368     0.16980
O1642       O  0.85490231  0.26660350  0.40689687    -0.60050
H1643       H  0.84591774  0.23880188  0.40015207     0.43970
H1644       H  0.01774771  0.25111814  0.47710334     0.43930
C1645       C  0.85782656  0.31413600  0.49559606    -0.05130
C1646       C  0.84093821  0.32891807  0.53171947    -0.32560
C1647       C  0.82536701  0.36779743  0.53507141     0.36690
C1648       C  0.82824375  0.39424709  0.50282594    -0.05490
C1649       C  0.84652391  0.38184571  0.46780673    -0.32460
C1650       C  0.86317561  0.34354022  0.46454495     0.36590
H1651       H  0.84060111  0.31021699  0.55837470     0.16960
O1652       O  0.81036959  0.38059543  0.57102594    -0.59960
H1653       H  0.85175641  0.40361590  0.44414872     0.16980
O1654       O  0.88897988  0.33877939  0.43351181    -0.60050
H1655       H  0.91538121  0.34906064  0.44365425     0.43970
H1656       H  0.78107810  0.37495676  0.56905042     0.43930
loop_ 
_geom_bond_atom_site_label_1 
_geom_bond_atom_site_label_2 
_geom_bond_distance 
_geom_bond_site_symmetry_2 
_ccdc_geom_bond_type 
C1         C1609   1.587       .  S
C1         C1621   1.580       .  S
C1         C1633   1.582       .  S
C1         C1645   1.570       .  S
C2         C1564   1.581       .  S
C2         C1573   1.595       .  S
C2         C1585   1.573       .  S
C2         C1597   1.584       .  S
C3         C1513   1.565       .  S
C3         C1525   1.568       .  S
C3         C1537   1.570       .  S
C3         C1549   1.558       .  S
C4         C1465   1.565       .  S
C4         C1480   1.568       .  S
C4         C1489   1.582       .  S
C4         C1501   1.547       .  S
O5          Cu13   1.955       .  S
O5           C15   1.272       .  A
O6          Cu13   1.960       .  S
O6           C16   1.272       .  A
O7          Cu13   1.975       .  S
O7           C17   1.275       .  A
O8          Cu13   1.964       .  S
O8           C18   1.271       .  A
O9          Cu14   2.044       .  S
O9           C18   1.282       .  A
O10         Cu14   2.055       .  S
O10          C17   1.283       .  A
O11         Cu14   2.003       .  S
O11          C16   1.275       .  A
O12         Cu14   2.002       .  S
O12          C15   1.275       .  A
Cu13        Cu14   2.378       .  S
C15        C1504   1.444       .  S
C16        C1648   1.447       .  S
C17        C1600   1.494       .  S
C18        C1552   1.463       .  S
C19        C1417   1.580       .  S
C19        C1429   1.572       .  S
C19        C1444   1.588       .  S
C19        C1456   1.561       .  S
C20        C1369   1.563       .  S
C20        C1381   1.574       .  S
C20        C1393   1.570       .  S
C20        C1405   1.552       .  S
C21        C1321   1.577       .  S
C21        C1336   1.579       .  S
C21        C1348   1.582       .  S
C21        C1357   1.551       .  S
C22        C1288   1.574       .  S
C22        C1297   1.593       .  S
C22        C1309   1.557       .  S
C22        C1468   1.568       .  S
O23         Cu31   1.958       .  S
O23          C33   1.273       .  A
O24         Cu31   1.958       .  S
O24          C34   1.273       .  A
O25         Cu31   1.965       .  S
O25          C35   1.273       .  A
O26         Cu31   1.956       .  S
O26          C36   1.271       .  A
O27         Cu32   2.025       .  S
O27          C36   1.279       .  A
O28         Cu32   2.026       .  S
O28          C35   1.280       .  A
O29         Cu32   2.021       .  S
O29          C34   1.277       .  A
O30         Cu32   2.026       .  S
O30          C33   1.279       .  A
Cu31        Cu32   2.380       .  S
C33        C1453   1.462       .  S
C34        C1312   1.453       .  S
C35        C1408   1.464       .  S
C36        C1360   1.453       .  S
C37        C1240   1.573       .  S
C37        C1249   1.587       .  S
C37        C1261   1.583       .  S
C37        C1276   1.569       .  S
C38        C1189   1.580       .  S
C38        C1201   1.601       .  S
C38        C1213   1.581       .  S
C38        C1225   1.567       .  S
C39        C1153   1.577       .  S
C39        C1165   1.577       .  S
C39        C1177   1.561       .  S
C39        C1516   1.563       .  S
C40        C1117   1.583       .  S
C40        C1129   1.601       .  S
C40        C1141   1.569       .  S
C40        C1324   1.564       .  S
O41         Cu49   1.966       .  S
O41          C51   1.273       .  A
O42         Cu49   1.970       .  S
O42          C52   1.273       .  A
O43         Cu49   1.963       .  S
O43          C53   1.274       .  A
O44         Cu49   1.947       .  S
O44          C54   1.271       .  A
O45         Cu50   2.042       .  S
O45          C54   1.281       .  A
O46         Cu50   2.051       .  S
O46          C53   1.282       .  A
O47         Cu50   2.024       .  S
O47          C52   1.280       .  A
O48         Cu50   2.026       .  S
O48          C51   1.278       .  A
Cu49        Cu50   2.372       .  S
C51        C1273   1.457       .  S
C52        C1144   1.482       .  S
C53        C1228   1.488       .  S
C54        C1180   1.463       .  S
C55        C1081   1.589       .  S
C55        C1093   1.602       .  S
C55        C1105   1.570       .  S
C55        C1345   1.574   1_545  S
C56        C1045   1.584       .  S
C56        C1057   1.602   1_556  S
C56        C1069   1.575       .  S
C56        C1132   1.595       .  S
C57        C1009   1.589       .  S
C57        C1021   1.593   1_556  S
C57        C1033   1.574       .  S
C57        C1264   1.567       .  S
C58         C973   1.599       .  S
C58         C985   1.563       .  S
C58         C997   1.587       .  S
C58        C1396   1.590   1_545  S
O59         Cu67   2.037   1_566  S
O59          C69   1.280   1_556  A
O60         Cu67   2.033       .  S
O60          C70   1.280       .  A
O61         Cu67   2.038   1_556  S
O61          C71   1.280       .  A
O62         Cu67   2.037       .  S
O62          C72   1.279       .  A
O63         Cu68   1.939       .  S
O63          C72   1.273       .  A
O64         Cu68   1.946   1_556  S
O64          C71   1.273       .  A
O65         Cu68   1.965       .  S
O65          C70   1.273       .  A
O66         Cu68   1.977   1_565  S
O66          C69   1.273       .  A
Cu67        Cu68   2.377       .  S
C69        C1072   1.465   1_554  S
C70        C1036   1.463       .  S
C71        C1108   1.471       .  S
C72        C1000   1.461       .  S
C73         C937   1.572       .  S
C73         C949   1.578       .  S
C73         C964   1.560       .  S
C73        C1540   1.562   1_455  S
C74         C901   1.574       .  S
C74         C913   1.580       .  S
C74         C925   1.559       .  S
C74        C1168   1.587   1_554  S
C75         C877   1.603       .  S
C75         C889   1.572       .  S
C75        C1048   1.567       .  S
C75        C1204   1.602   1_554  S
C76         C841   1.571       .  S
C76         C853   1.593   1_655  S
C76         C865   1.549       .  S
C76        C1588   1.586       .  S
O77         Cu85   2.069   1_655  S
O77          C87   1.286       .  A
O78         Cu85   2.055       .  S
O78          C88   1.284       .  A
O79         Cu85   2.003       .  S
O79          C89   1.274       .  A
O80         Cu85   1.994   1_554  S
O80          C90   1.273       .  A
O81         Cu86   1.991   1_554  S
O81          C90   1.276   1_655  A
O82         Cu86   1.993       .  S
O82          C89   1.277   1_655  A
O83         Cu86   1.937   1_455  S
O83          C88   1.268       .  A
O84         Cu86   1.945       .  S
O84          C87   1.268       .  A
Cu85        Cu86   2.375   1_455  S
C87         C928   1.474   1_556  S
C88         C892   1.485       .  S
C89         C961   1.458       .  S
C90         C868   1.453   1_455  S
C91         C817   1.567       .  S
C91         C829   1.574       .  S
C91         C904   1.570       .  S
C91        C1120   1.565   1_554  S
C92         C781   1.585       .  S
C92         C796   1.585       .  S
C92         C805   1.573       .  S
C92        C1333   1.591   1_545  S
C93         C745   1.570       .  S
C93         C757   1.562   1_556  S
C93         C769   1.572       .  S
C93        C1252   1.570       .  S
C94         C709   1.581       .  S
C94         C721   1.585       .  S
C94         C733   1.572       .  S
C94        C1384   1.576   1_545  S
O95        Cu103   1.950       .  S
O95         C105   1.274       .  A
O96        Cu103   1.950   1_565  S
O96         C106   1.271   1_556  A
O97        Cu103   1.967   1_554  S
O97         C107   1.272       .  A
O98        Cu103   1.944       .  S
O98         C108   1.273       .  A
O99        Cu104   2.050   1_556  S
O99         C108   1.281       .  A
O100       Cu104   2.060       .  S
O100        C107   1.284       .  A
O101       Cu104   2.054   1_565  S
O101        C106   1.282       .  A
O102       Cu104   2.049       .  S
O102        C105   1.280   1_554  A
Cu103      Cu104   2.369   1_556  S
C105        C772   1.483       .  S
C106        C832   1.468       .  S
C107        C736   1.479       .  S
C108        C808   1.478       .  S
C109        C673   1.593       .  S
C109        C688   1.611       .  S
C109        C697   1.548       .  S
C109        C880   1.595       .  S
C110        C652   1.570       .  S
C110        C661   1.555       .  S
C110        C760   1.575       .  S
C110       C1024   1.578       .  S
C111        C637   1.562       .  S
C111        C820   1.565       .  S
C111       C1060   1.571       .  S
C111       C1372   1.566       .  S
C112        C613   1.574       .  S
C112        C625   1.551       .  S
C112        C916   1.587       .  S
C112       C1561   1.566       .  S
O113       Cu121   2.020       .  S
O113        C123   1.277       .  A
O114       Cu121   2.022       .  S
O114        C124   1.280       .  A
O115       Cu121   2.034       .  S
O115        C125   1.280       .  A
O116       Cu121   2.038       .  S
O116        C126   1.281       .  A
O117       Cu122   1.933       .  S
O117        C126   1.269       .  A
O118       Cu122   1.925       .  S
O118        C125   1.269       .  A
O119       Cu122   1.967       .  S
O119        C124   1.273       .  A
O120       Cu122   1.973       .  S
O120        C123   1.274       .  A
Cu121      Cu122   2.374       .  S
C123        C664   1.456       .  S
C124        C640   1.466       .  S
C125        C700   1.454       .  S
C126        C628   1.473       .  S
C127        C601   1.558       .  S
C127        C616   1.572       .  S
C127        C748   1.577       .  S
C127       C1156   1.582   1_554  S
C128        C565   1.570       .  S
C128        C577   1.566       .  S
C128        C592   1.556       .  S
C128       C1528   1.572   1_455  S
C129        C553   1.575       .  S
C129        C685   1.563   1_556  S
C129       C1012   1.581       .  S
C129       C1216   1.567       .  S
C130        C517   1.564       .  S
C130        C529   1.597   1_655  S
C130        C541   1.567       .  S
C130       C1576   1.587       .  S
O131       Cu139   1.979       .  S
O131        C141   1.274       .  A
O132       Cu139   1.982   1_455  S
O132        C142   1.275       .  A
O133       Cu139   1.960       .  S
O133        C143   1.271       .  A
O134       Cu139   1.969   1_554  S
O134        C144   1.272       .  A
O135       Cu140   2.044   1_554  S
O135        C144   1.283       .  A
O136       Cu140   2.034       .  S
O136        C143   1.280       .  A
O137       Cu140   2.018   1_455  S
O137        C142   1.277       .  A
O138       Cu140   2.020       .  S
O138        C141   1.277       .  A
Cu139      Cu140   2.376       .  S
C141        C604   1.460       .  S
C142        C556   1.461       .  S
C143        C589   1.459   1_655  S
C144        C544   1.489       .  S
C145        C496   1.581       .  S
C145        C505   1.551       .  S
C145        C784   1.581       .  S
C145       C1300   1.581   1_545  S
C146        C472   1.576       .  S
C146        C481   1.562   1_455  S
C146        C940   1.566       .  S
C146       C1492   1.573   1_455  S
C147        C448   1.585       .  S
C147        C457   1.557       .  S
C147        C568   1.578       .  S
C147       C1624   1.579   1_455  S
C148        C421   1.604       .  S
C148        C433   1.553       .  S
C148       C1084   1.578       .  S
C148       C1432   1.567   1_545  S
O149       Cu157   2.038   1_565  S
O149        C159   1.280       .  A
O150       Cu157   2.029       .  S
O150        C160   1.279       .  A
O151       Cu157   2.034       .  S
O151        C161   1.280       .  A
O152       Cu157   2.026   1_455  S
O152        C162   1.279       .  A
O153       Cu158   1.954   1_455  S
O153        C162   1.273       .  A
O154       Cu158   1.957       .  S
O154        C161   1.271       .  A
O155       Cu158   1.971       .  S
O155        C160   1.274       .  A
O156       Cu158   1.976   1_565  S
O156        C159   1.274       .  A
Cu157      Cu158   2.378       .  S
C159        C484   1.467       .  S
C160        C460   1.463   1_655  S
C161        C508   1.459       .  S
C162        C436   1.463       .  S
C163        C385   1.575       .  S
C163        C400   1.583       .  S
C163        C409   1.569       .  S
C163        C445   1.578       .  S
C164        C376   1.557       .  S
C164        C532   1.580       .  S
C164        C676   1.568       .  S
C164        C856   1.555       .  S
C165        C361   1.571       .  S
C165        C580   1.594       .  S
C165        C952   1.603       .  S
C165       C1192   1.571       .  S
C166        C337   1.601       .  S
C166        C349   1.577       .  S
C166        C469   1.566       .  S
C166       C1420   1.588       .  S
O167       Cu175   2.020       .  S
O167        C177   1.277       .  A
O168       Cu175   2.032       .  S
O168        C178   1.279       .  A
O169       Cu175   2.040       .  S
O169        C179   1.282       .  A
O170       Cu175   2.025       .  S
O170        C180   1.279       .  A
O171       Cu176   1.946       .  S
O171        C180   1.270       .  A
O172       Cu176   1.954       .  S
O172        C179   1.272       .  A
O173       Cu176   1.978       .  S
O173        C178   1.274       .  A
O174       Cu176   1.976       .  S
O174        C177   1.275       .  A
Cu175      Cu176   2.376       .  S
C177        C412   1.465       .  S
C178        C352   1.463       .  S
C179        C364   1.480       .  S
C180        C373   1.453       .  S
C181        C313   1.590       .  S
C181        C325   1.583       .  S
C181        C388   1.594       .  S
C181        C424   1.598       .  S
C182        C301   1.565       .  S
C182        C649   1.562       .  S
C182        C724   1.581       .  S
C182        C988   1.582       .  S
C183        C289   1.555       .  S
C183        C793   1.583       .  S
C183       C1096   1.570       .  S
C183       C1237   1.570       .  S
C184        C265   1.572       .  S
C184        C277   1.581       .  S
C184        C493   1.593       .  S
C184       C1612   1.567       .  S
O185       Cu193   1.922       .  S
O185        C195   1.268       .  A
O186       Cu193   1.925       .  S
O186        C196   1.269       .  A
O187       Cu193   1.971       .  S
O187        C197   1.274       .  A
O188       Cu193   1.982       .  S
O188        C198   1.275       .  A
O189       Cu194   2.024       .  S
O189        C198   1.277       .  A
O190       Cu194   2.023       .  S
O190        C197   1.279       .  A
O191       Cu194   2.069       .  S
O191        C196   1.285       .  A
O192       Cu194   2.073       .  S
O192        C195   1.285       .  A
Cu193      Cu194   2.364       .  S
C195        C328   1.476       .  S
C196        C280   1.485       .  S
C197        C292   1.482       .  S
C198        C304   1.463       .  S
C199        C256   1.574       .  S
C199        C340   1.564       .  S
C199        C844   1.578   1_455  S
C199       C1477   1.563   1_455  S
C200        C244   1.576   1_545  S
C200        C268   1.561       .  S
C200        C712   1.576       .  S
C200       C1285   1.564   1_545  S
C201        C229   1.562       .  S
C201        C316   1.602       .  S
C201        C976   1.594       .  S
C201       C1441   1.576   1_545  S
C202        C220   1.570       .  S
C202        C397   1.567       .  S
C202        C520   1.591       .  S
C202       C1636   1.614   1_455  S
O203       Cu211   1.925       .  S
O203        C213   1.268       .  A
O204       Cu211   1.926   1_565  S
O204        C214   1.268       .  A
O205       Cu211   1.954       .  S
O205        C215   1.272       .  A
O206       Cu211   1.981   1_655  S
O206        C216   1.276       .  A
O207       Cu212   2.040   1_655  S
O207        C216   1.280       .  A
O208       Cu212   2.041       .  S
O208        C215   1.280       .  A
O209       Cu212   2.061   1_565  S
O209        C214   1.284       .  A
O210       Cu212   2.059       .  S
O210        C213   1.282       .  A
Cu211      Cu212   2.371       .  S
C213        C217   1.483       .  S
C214        C253   1.464       .  S
C215        C232   1.464       .  S
C216        C241   1.475       .  S
C217        C218   1.405       .  A
C217        C222   1.404   1_455  A
C218        C219   1.419       .  A
C218        H223   1.083       .  S
C219        C220   1.431       .  A
C219        O224   1.370       .  S
C220        C221   1.409   1_455  A
C221        C222   1.371       .  A
C221        H225   1.063       .  S
C222        O226   1.376       .  S
O224        H228   0.992       .  S
O226        H227   0.993   1_655  S
C229        C230   1.419       .  A
C229        C234   1.424   1_545  A
C230        C231   1.385       .  A
C230        H235   1.077       .  S
C231        C232   1.397       .  A
C231        O236   1.375       .  S
C232        C233   1.401   1_545  A
C233        C234   1.413       .  A
C233        H237   1.083       .  S
C234        O238   1.373       .  S
O236        H240   0.992       .  S
O238        H239   0.991       .  S
C241        C242   1.389   1_545  A
C241        C246   1.402       .  A
C242        C243   1.394       .  A
C242        H247   1.085       .  S
C243        C244   1.437       .  A
C243        O248   1.372       .  S
C244        C245   1.423   1_565  A
C245        C246   1.409       .  A
C245        H249   1.083       .  S
C246        O250   1.371       .  S
O248        H252   0.993       .  S
O250        H251   0.992       .  S
C253        C254   1.395   1_455  A
C253        C258   1.399       .  A
C254        C255   1.389       .  A
C254        H259   1.085       .  S
C255        C256   1.426   1_655  A
C255        O260   1.373       .  S
C256        C257   1.424       .  A
C257        C258   1.406       .  A
C257        H261   1.083       .  S
C258        O262   1.371       .  S
O260        H264   0.993       .  S
O262        H263   0.992       .  S
C265        C266   1.407       .  A
C265        C270   1.428       .  A
C266        C267   1.387       .  A
C266        H271   1.069       .  S
C267        C268   1.415       .  A
C267        O272   1.366       .  S
C268        C269   1.410       .  A
C269        C270   1.413       .  A
C269        H273   1.082       .  S
C270        O274   1.373       .  S
O272        H276   0.992       .  S
O274        H275   0.992       .  S
C277        C278   1.426       .  A
C277        C282   1.418       .  A
C278        C279   1.414       .  A
C278        H283   1.076       .  S
C279        C280   1.404       .  A
C279        O284   1.370       .  S
C280        C281   1.398       .  A
C281        C282   1.383       .  A
C281        H285   1.084       .  S
C282        O286   1.364       .  S
O284        H288   0.992       .  S
O286        H287   0.992       .  S
C289        C290   1.415       .  A
C289        C294   1.423       .  A
C290        C291   1.382       .  A
C290        H295   1.081       .  S
C291        C292   1.405       .  A
C291        O296   1.372       .  S
C292        C293   1.406       .  A
C293        C294   1.411       .  A
C293        H297   1.083       .  S
C294        O298   1.371       .  S
O296        H300   0.992       .  S
O298        H299   0.992       .  S
C301        C302   1.416       .  A
C301        C306   1.425       .  A
C302        C303   1.392       .  A
C302        H307   1.081       .  S
C303        C304   1.395       .  A
C303        O308   1.371       .  S
C304        C305   1.397       .  A
C305        C306   1.410       .  A
C305        H309   1.084       .  S
C306        O310   1.374       .  S
O308        H312   0.991       .  S
O310        H311   0.992       .  S
C313        C314   1.403       .  A
C313        C318   1.425       .  A
C314        C315   1.412       .  A
C314        H319   1.077       .  S
C315        C316   1.435       .  A
C315        O320   1.378       .  S
C316        C317   1.420       .  A
C317        C318   1.418       .  A
C317        H321   1.070       .  S
C318        O322   1.372       .  S
O320        H324   0.991   1_545  S
O322        H323   0.991       .  S
C325        C326   1.410       .  A
C325        C330   1.431       .  A
C326        C327   1.377       .  A
C326        H331   1.077       .  S
C327        C328   1.402       .  A
C327        O332   1.375       .  S
C328        C329   1.405       .  A
C329        C330   1.419       .  A
C329        H333   1.083       .  S
C330        O334   1.373       .  S
O332        H336   0.992       .  S
O334        H335   0.991       .  S
C337        C338   1.432       .  A
C337        C342   1.430       .  A
C338        C339   1.413       .  A
C338        H343   1.067       .  S
C339        C340   1.408       .  A
C339        O344   1.369       .  S
C340        C341   1.407       .  A
C341        C342   1.394       .  A
C341        H345   1.076       .  S
C342        O346   1.373       .  S
O344        H348   0.991       .  S
O346        H347   0.993       .  S
C349        C350   1.417       .  A
C349        C354   1.432       .  A
C350        C351   1.406       .  A
C350        H355   1.084       .  S
C351        C352   1.401       .  A
C351        O356   1.371       .  S
C352        C353   1.391       .  A
C353        C354   1.395       .  A
C353        H357   1.085       .  S
C354        O358   1.376       .  S
O356        H360   0.991       .  S
O358        H359   0.992       .  S
C361        C362   1.418       .  A
C361        C366   1.428       .  A
C362        C363   1.381       .  A
C362        H367   1.084       .  S
C363        C364   1.406       .  A
C363        O368   1.373       .  S
C364        C365   1.402       .  A
C365        C366   1.410       .  A
C365        H369   1.083       .  S
C366        O370   1.369       .  S
O368        H372   0.992       .  S
O370        H371   0.992       .  S
C373        C374   1.391       .  A
C373        C378   1.401       .  A
C374        C375   1.401       .  A
C374        H379   1.084       .  S
C375        C376   1.429       .  A
C375        O380   1.372       .  S
C376        C377   1.414       .  A
C377        C378   1.388       .  A
C377        H381   1.080       .  S
C378        O382   1.373       .  S
O380        H384   0.992       .  S
O382        H383   0.992       .  S
C385        C386   1.411       .  A
C385        C390   1.419       .  A
C386        C387   1.408       .  A
C386        H391   1.078       .  S
C387        C388   1.427       .  A
C387        O392   1.375       .  S
C388        C389   1.418       .  A
C389        C390   1.409       .  A
C389        H393   1.068       .  S
C390        O394   1.373       .  S
O392        H396   0.992       .  S
O394        H395   0.993       .  S
C397        C398   1.414       .  A
C397        C402   1.416       .  A
C398        C399   1.416       .  A
C398        H403   1.082       .  S
C399        C400   1.426       .  A
C399        O404   1.373       .  S
C400        C401   1.420       .  A
C401        C402   1.397       .  A
C401        H405   1.077       .  S
C402        O406   1.373       .  S
O404        H408   0.993       .  S
O406        H407   0.991       .  S
C409        C410   1.419       .  A
C409        C414   1.425       .  A
C410        C411   1.382       .  A
C410        H415   1.076       .  S
C411        C412   1.395       .  A
C411        O416   1.373       .  S
C412        C413   1.400       .  A
C413        C414   1.409       .  A
C413        H417   1.083       .  S
C414        O418   1.372       .  S
O416        H420   0.992       .  S
O418        H419   0.992       .  S
C421        C422   1.415       .  A
C421        C426   1.434       .  A
C422        C423   1.408       .  A
C422        H427   1.068       .  S
C423        C424   1.432       .  A
C423        O428   1.372       .  S
C424        C425   1.413       .  A
C425        C426   1.411       .  A
C425        H429   1.068       .  S
C426        O430   1.370       .  S
O428        H432   0.992       .  S
O430        H431   0.992       .  S
C433        C434   1.416   1_545  A
C433        C438   1.424       .  A
C434        C435   1.380       .  A
C434        H439   1.077       .  S
C435        C436   1.399   1_565  A
C435        O440   1.374       .  S
C436        C437   1.401       .  A
C437        C438   1.407       .  A
C437        H441   1.083       .  S
C438        O442   1.373       .  S
O440        H444   0.991       .  S
O442        H443   0.992       .  S
C445        C446   1.403       .  A
C445        C450   1.418       .  A
C446        C447   1.404       .  A
C446        H451   1.078       .  S
C447        C448   1.427       .  A
C447        O452   1.372       .  S
C448        C449   1.416       .  A
C449        C450   1.411       .  A
C449        H453   1.072       .  S
C450        O454   1.372       .  S
O452        H456   0.992       .  S
O454        H455   0.991       .  S
C457        C458   1.415       .  A
C457        C462   1.427   1_455  A
C458        C459   1.388       .  A
C458        H463   1.079       .  S
C459        C460   1.400       .  A
C459        O464   1.373       .  S
C460        C461   1.397   1_455  A
C461        C462   1.408       .  A
C461        H465   1.083       .  S
C462        O466   1.373       .  S
O464        H468   0.992       .  S
O466        H467   0.991       .  S
C469        C470   1.411       .  A
C469        C474   1.420       .  A
C470        C471   1.410       .  A
C470        H475   1.080       .  S
C471        C472   1.429       .  A
C471        O476   1.367       .  S
C472        C473   1.412       .  A
C473        C474   1.398       .  A
C473        H477   1.082       .  S
C474        O478   1.376       .  S
O476        H480   0.992       .  S
O478        H479   0.992       .  S
C481        C482   1.416   1_655  A
C481        C486   1.428       .  A
C482        C483   1.406       .  A
C482        H487   1.082       .  S
C483        C484   1.403   1_455  A
C483        O488   1.371       .  S
C484        C485   1.393       .  A
C485        C486   1.396       .  A
C485        H489   1.084       .  S
C486        O490   1.375       .  S
O488        H492   0.991       .  S
O490        H491   0.993       .  S
C493        C494   1.413       .  A
C493        C498   1.421       .  A
C494        C495   1.417       .  A
C494        H499   1.082       .  S
C495        C496   1.436       .  A
C495        O500   1.374       .  S
C496        C497   1.407       .  A
C497        C498   1.399       .  A
C497        H501   1.082       .  S
C498        O502   1.370       .  S
O500        H504   0.992       .  S
O502        H503   0.992       .  S
C505        C506   1.418       .  A
C505        C510   1.422   1_545  A
C506        C507   1.400       .  A
C506        H511   1.082       .  S
C507        C508   1.399       .  A
C507        O512   1.371       .  S
C508        C509   1.396   1_545  A
C509        C510   1.398       .  A
C509        H513   1.085       .  S
C510        O514   1.372       .  S
O512        H516   0.992       .  S
O514        H515   0.990       .  S
C517        C518   1.402   1_655  A
C517        C522   1.419       .  A
C518        C519   1.400       .  A
C518        H523   1.080       .  S
C519        C520   1.440       .  A
C519        O524   1.373       .  S
C520        C521   1.415   1_455  A
C521        C522   1.412       .  A
C521        H525   1.075       .  S
C522        O526   1.373       .  S
O524        H528   0.993       .  S
O526        H527   0.991       .  S
C529        C530   1.410       .  A
C529        C534   1.435       .  A
C530        C531   1.401       .  A
C530        H535   1.068       .  S
C531        C532   1.424       .  A
C531        O536   1.373       .  S
C532        C533   1.408       .  A
C533        C534   1.410       .  A
C533        H537   1.077       .  S
C534        O538   1.371       .  S
O536        H540   0.993       .  S
O538        H539   0.991       .  S
C541        C542   1.415       .  A
C541        C546   1.428       .  A
C542        C543   1.389       .  A
C542        H547   1.084       .  S
C543        C544   1.411       .  A
C543        O548   1.372       .  S
C544        C545   1.403       .  A
C545        C546   1.407       .  A
C545        H549   1.083       .  S
C546        O550   1.369   1_655  S
O548        H552   0.992       .  S
O550        H551   0.992       .  S
C553        C554   1.422       .  A
C553        C558   1.439   1_556  A
C554        C555   1.404       .  A
C554        H559   1.084       .  S
C555        C556   1.399       .  A
C555        O560   1.371       .  S
C556        C557   1.386   1_556  A
C557        C558   1.390       .  A
C557        H561   1.086       .  S
C558        O562   1.369       .  S
O560        H564   0.992       .  S
O562        H563   0.992       .  S
C565        C566   1.416       .  A
C565        C570   1.419   1_455  A
C566        C567   1.411       .  A
C566        H571   1.082       .  S
C567        C568   1.419       .  A
C567        O572   1.376       .  S
C568        C569   1.418   1_455  A
C569        C570   1.400       .  A
C569        H573   1.078       .  S
C570        O574   1.373       .  S
O572        H576   0.992       .  S
O574        H575   0.992       .  S
C577        C578   1.406       .  A
C577        C582   1.422       .  A
C578        C579   1.403       .  A
C578        H583   1.077       .  S
C579        C580   1.437       .  A
C579        O584   1.375       .  S
C580        C581   1.407       .  A
C581        C582   1.403       .  A
C581        H585   1.066       .  S
C582        O586   1.373       .  S
O584        H588   0.992       .  S
O586        H587   0.993       .  S
C589        C590   1.396       .  A
C589        C594   1.400   1_455  A
C590        C591   1.397       .  A
C590        H595   1.085       .  S
C591        C592   1.424       .  A
C591        O596   1.373       .  S
C592        C593   1.417   1_455  A
C593        C594   1.401       .  A
C593        H597   1.083       .  S
C594        O598   1.371       .  S
O596        H600   0.992       .  S
O598        H599   0.991       .  S
C601        C602   1.415       .  A
C601        C606   1.423   1_554  A
C602        C603   1.389       .  A
C602        H607   1.080       .  S
C603        C604   1.399   1_554  A
C603        O608   1.373       .  S
C604        C605   1.399       .  A
C605        C606   1.407       .  A
C605        H609   1.083       .  S
C606        O610   1.374       .  S
O608        H612   0.992       .  S
O610        H611   0.992       .  S
C613        C614   1.407       .  A
C613        C618   1.423       .  A
C614        C615   1.404       .  A
C614        H619   1.084       .  S
C615        C616   1.427       .  A
C615        O620   1.373       .  S
C616        C617   1.411       .  A
C617        C618   1.407       .  A
C617        H621   1.078       .  S
C618        O622   1.373       .  S
O620        H624   0.993       .  S
O622        H623   0.992       .  S
C625        C626   1.405       .  A
C625        C630   1.427       .  A
C626        C627   1.375       .  A
C626        H631   1.070       .  S
C627        C628   1.405       .  A
C627        O632   1.374       .  S
C628        C629   1.402       .  A
C629        C630   1.411       .  A
C629        H633   1.083       .  S
C630        O634   1.372       .  S
O632        H636   0.992       .  S
O634        H635   0.992       .  S
C637        C638   1.415       .  A
C637        C642   1.427       .  A
C638        C639   1.391       .  A
C638        H643   1.074       .  S
C639        C640   1.402       .  A
C639        O644   1.373       .  S
C640        C641   1.395       .  A
C641        C642   1.400       .  A
C641        H645   1.084       .  S
C642        O646   1.372       .  S
O644        H648   0.992       .  S
O646        H647   0.992       .  S
C649        C650   1.413       .  A
C649        C654   1.419       .  A
C650        C651   1.405       .  A
C650        H655   1.082       .  S
C651        C652   1.423       .  A
C651        O656   1.371       .  S
C652        C653   1.410       .  A
C653        C654   1.402       .  A
C653        H657   1.082       .  S
C654        O658   1.371       .  S
O656        H660   0.992       .  S
O658        H659   0.992       .  S
C661        C662   1.413       .  A
C661        C666   1.429       .  A
C662        C663   1.401       .  A
C662        H667   1.079       .  S
C663        C664   1.400       .  A
C663        O668   1.371       .  S
C664        C665   1.391       .  A
C665        C666   1.395       .  A
C665        H669   1.085       .  S
C666        O670   1.374       .  S
O668        H672   0.991       .  S
O670        H671   0.993       .  S
C673        C674   1.410       .  A
C673        C678   1.425       .  A
C674        C675   1.392       .  A
C674        H679   1.076       .  S
C675        C676   1.425       .  A
C675        O680   1.374       .  S
C676        C677   1.412       .  A
C677        C678   1.410       .  A
C677        H681   1.084       .  S
C678        O682   1.370       .  S
O680        H684   0.993       .  S
O682        H683   0.992       .  S
C685        C686   1.407       .  A
C685        C690   1.405       .  A
C686        C687   1.418       .  A
C686        H691   1.084       .  S
C687        C688   1.440       .  A
C687        O692   1.359       .  S
C688        C689   1.420       .  A
C689        C690   1.378       .  A
C689        H693   1.072       .  S
C690        O694   1.372   1_554  S
O692        H696   0.992       .  S
O694        H695   0.992       .  S
C697        C698   1.411       .  A
C697        C702   1.427       .  A
C698        C699   1.386       .  A
C698        H703   1.071       .  S
C699        C700   1.400       .  A
C699        O704   1.373       .  S
C700        C701   1.392       .  A
C701        C702   1.399       .  A
C701        H705   1.084       .  S
C702        O706   1.370       .  S
O704        H708   0.992       .  S
O706        H707   0.992       .  S
C709        C710   1.422   1_545  A
C709        C714   1.417       .  A
C710        C711   1.411       .  A
C710        H715   1.080       .  S
C711        C712   1.420   1_565  A
C711        O716   1.370       .  S
C712        C713   1.412       .  A
C713        C714   1.405       .  A
C713        H717   1.071       .  S
C714        O718   1.374       .  S
O716        H720   0.992       .  S
O718        H719   0.993       .  S
C721        C722   1.411       .  A
C721        C726   1.426       .  A
C722        C723   1.419       .  A
C722        H727   1.074       .  S
C723        C724   1.428       .  A
C723        O728   1.371       .  S
C724        C725   1.410       .  A
C725        C726   1.401       .  A
C725        H729   1.083       .  S
C726        O730   1.370       .  S
O728        H732   0.992       .  S
O730        H731   0.992       .  S
C733        C734   1.413   1_545  A
C733        C738   1.426       .  A
C734        C735   1.390       .  A
C734        H739   1.076       .  S
C735        C736   1.404   1_565  A
C735        O740   1.373       .  S
C736        C737   1.401       .  A
C737        C738   1.410       .  A
C737        H741   1.083       .  S
C738        O742   1.372       .  S
O740        H744   0.993       .  S
O742        H743   0.992       .  S
C745        C746   1.412   1_556  A
C745        C750   1.420       .  A
C746        C747   1.407       .  A
C746        H751   1.081       .  S
C747        C748   1.423       .  A
C747        O752   1.373       .  S
C748        C749   1.413   1_554  A
C749        C750   1.404       .  A
C749        H753   1.075       .  S
C750        O754   1.371       .  S
O752        H756   0.992       .  S
O754        H755   0.992       .  S
C757        C758   1.408       .  A
C757        C762   1.413       .  A
C758        C759   1.405       .  A
C758        H763   1.082       .  S
C759        C760   1.427       .  A
C759        O764   1.372       .  S
C760        C761   1.412       .  A
C761        C762   1.393       .  A
C761        H765   1.073       .  S
C762        O766   1.372       .  S
O764        H768   0.992       .  S
O766        H767   0.992       .  S
C769        C770   1.421       .  A
C769        C774   1.431   1_556  A
C770        C771   1.416       .  A
C770        H775   1.081       .  S
C771        C772   1.409       .  A
C771        O776   1.370       .  S
C772        C773   1.390   1_556  A
C773        C774   1.379       .  A
C773        H777   1.085       .  S
C774        O778   1.369       .  S
O776        H780   0.992       .  S
O778        H779   0.993   1_554  S
C781        C782   1.412       .  A
C781        C786   1.425   1_545  A
C782        C783   1.403       .  A
C782        H787   1.067       .  S
C783        C784   1.420       .  A
C783        O788   1.375       .  S
C784        C785   1.418   1_545  A
C785        C786   1.415       .  A
C785        H789   1.082       .  S
C786        O790   1.374       .  S
O788        H792   0.993       .  S
O790        H791   0.992       .  S
C793        C794   1.418       .  A
C793        C798   1.415       .  A
C794        C795   1.419       .  A
C794        H799   1.083       .  S
C795        C796   1.432       .  A
C795        O800   1.376       .  S
C796        C797   1.403       .  A
C797        C798   1.381       .  A
C797        H801   1.069       .  S
C798        O802   1.355       .  S
O800        H804   0.992       .  S
O802        H803   0.994       .  S
C805        C806   1.423       .  A
C805        C810   1.434       .  A
C806        C807   1.412       .  A
C806        H811   1.076   1_545  S
C807        C808   1.402       .  A
C807        O812   1.370   1_545  S
C808        C809   1.393       .  A
C809        C810   1.382       .  A
C809        H813   1.085       .  S
C810        O814   1.374       .  S
O812        H816   0.992   1_565  S
O814        H815   0.993       .  S
C817        C818   1.409       .  A
C817        C822   1.416       .  A
C818        C819   1.390       .  A
C818        H823   1.082       .  S
C819        C820   1.422       .  A
C819        O824   1.375       .  S
C820        C821   1.416       .  A
C821        C822   1.416       .  A
C821        H825   1.081       .  S
C822        O826   1.371       .  S
O824        H828   0.993       .  S
O826        H827   0.991       .  S
C829        C830   1.427   1_554  A
C829        C834   1.427       .  A
C830        C831   1.406       .  A
C830        H835   1.083       .  S
C831        C832   1.397   1_556  A
C831        O836   1.371       .  S
C832        C833   1.390       .  A
C833        C834   1.391       .  A
C833        H837   1.077       .  S
C834        O838   1.370       .  S
O836        H840   0.992       .  S
O838        H839   0.992       .  S
C841        C842   1.410       .  A
C841        C846   1.426       .  A
C842        C843   1.409   1_655  A
C842        H847   1.084       .  S
C843        C844   1.424   1_455  A
C843        O848   1.367       .  S
C844        C845   1.413       .  A
C845        C846   1.397       .  A
C845        H849   1.079       .  S
C846        O850   1.371       .  S
O848        H852   0.992       .  S
O850        H851   0.992   1_655  S
C853        C854   1.419       .  A
C853        C858   1.422       .  A
C854        C855   1.389       .  A
C854        H859   1.081       .  S
C855        C856   1.408       .  A
C855        O860   1.375       .  S
C856        C857   1.415       .  A
C857        C858   1.408       .  A
C857        H861   1.076       .  S
C858        O862   1.372       .  S
O860        H864   0.992       .  S
O862        H863   0.993       .  S
C865        C866   1.419   1_655  A
C865        C870   1.420       .  A
C866        C867   1.396       .  A
C866        H871   1.083       .  S
C867        C868   1.397   1_455  A
C867        O872   1.371       .  S
C868        C869   1.391       .  A
C869        C870   1.393       .  A
C869        H873   1.078       .  S
C870        O874   1.371       .  S
O872        H876   0.992       .  S
O874        H875   0.991       .  S
C877        C878   1.419       .  A
C877        C882   1.425       .  A
C878        C879   1.423       .  A
C878        H883   1.072       .  S
C879        C880   1.438       .  A
C879        O884   1.371       .  S
C880        C881   1.410       .  A
C881        C882   1.386       .  A
C881        H885   1.078       .  S
C882        O886   1.372       .  S
O884        H888   0.992       .  S
O886        H887   0.992       .  S
C889        C890   1.415   1_554  A
C889        C894   1.429       .  A
C890        C891   1.378       .  A
C890        H895   1.085       .  S
C891        C892   1.411       .  A
C891        O896   1.373       .  S
C892        C893   1.405   1_556  A
C893        C894   1.411       .  A
C893        H897   1.083       .  S
C894        O898   1.369       .  S
O896        H900   0.992       .  S
O898        H899   0.992       .  S
C901        C902   1.411       .  A
C901        C906   1.429       .  A
C902        C903   1.413       .  A
C902        H907   1.083   1_554  S
C903        C904   1.423       .  A
C903        O908   1.371   1_554  S
C904        C905   1.409       .  A
C905        C906   1.398       .  A
C905        H909   1.080       .  S
C906        O910   1.372       .  S
O908        H912   0.992       .  S
O910        H911   0.992       .  S
C913        C914   1.406       .  A
C913        C918   1.423       .  A
C914        C915   1.388       .  A
C914        H919   1.079   1_554  S
C915        C916   1.424       .  A
C915        O920   1.366       .  S
C916        C917   1.419       .  A
C917        C918   1.421       .  A
C917        H921   1.083       .  S
C918        O922   1.371       .  S
O920        H924   0.993       .  S
O922        H923   0.992       .  S
C925        C926   1.408       .  A
C925        C930   1.428   1_554  A
C926        C927   1.394       .  A
C926        H931   1.077       .  S
C927        C928   1.408       .  A
C927        O932   1.375       .  S
C928        C929   1.397   1_554  A
C929        C930   1.407       .  A
C929        H933   1.083       .  S
C930        O934   1.373       .  S
O932        H936   0.992       .  S
O934        H935   0.992       .  S
C937        C938   1.413       .  A
C937        C942   1.422   1_455  A
C938        C939   1.406       .  A
C938        H943   1.082       .  S
C939        C940   1.421       .  A
C939        O944   1.371       .  S
C940        C941   1.410   1_455  A
C941        C942   1.408       .  A
C941        H945   1.082       .  S
C942        O946   1.369       .  S
O944        H948   0.991       .  S
O946        H947   0.992       .  S
C949        C950   1.421       .  A
C949        C954   1.412       .  A
C950        C951   1.420       .  A
C950        H955   1.080       .  S
C951        C952   1.425       .  A
C951        O956   1.378       .  S
C952        C953   1.420       .  A
C953        C954   1.396       .  A
C953        H957   1.072       .  S
C954        O958   1.375       .  S
O956        H960   0.992       .  S
O958        H959   0.993       .  S
C961        C962   1.386   1_455  A
C961        C966   1.403       .  A
C962        C963   1.393       .  A
C962        H967   1.085       .  S
C963        C964   1.428   1_655  A
C963        O968   1.370       .  S
C964        C965   1.415       .  A
C965        C966   1.403       .  A
C965        H969   1.083       .  S
C966        O970   1.371       .  S
O968        H972   0.987       .  S
O970        H971   0.991       .  S
C973        C974   1.404   1_545  A
C973        C978   1.431       .  A
C974        C975   1.399       .  A
C974        H979   1.068       .  S
C975        C976   1.435   1_565  A
C975        O980   1.376       .  S
C976        C977   1.412       .  A
C977        C978   1.415       .  A
C977        H981   1.080       .  S
C978        O982   1.372       .  S
O980        H984   0.993       .  S
O982        H983   0.992       .  S
C985        C986   1.412       .  A
C985        C990   1.424       .  A
C986        C987   1.400       .  A
C986        H991   1.084       .  S
C987        C988   1.420       .  A
C987        O992   1.374       .  S
C988        C989   1.416       .  A
C989        C990   1.407       .  A
C989        H993   1.079       .  S
C990        O994   1.369       .  S
O992        H996   0.992       .  S
O994        H995   0.992       .  S
C997        C998   1.426       .  A
C997       C1002   1.443   1_545  A
C998        C999   1.406       .  A
C998       H1003   1.064       .  S
C999       C1000   1.394       .  A
C999       O1004   1.371       .  S
C1000      C1001   1.384   1_545  A
C1001      C1002   1.384       .  A
C1001      H1005   1.084       .  S
C1002      O1006   1.369       .  S
O1004      H1008   0.991       .  S
O1006      H1007   0.993       .  S
C1009      C1010   1.416       .  A
C1009      C1014   1.429       .  A
C1010      C1011   1.409       .  A
C1010      H1015   1.080       .  S
C1011      C1012   1.421       .  A
C1011      O1016   1.372       .  S
C1012      C1013   1.412       .  A
C1013      C1014   1.407       .  A
C1013      H1017   1.076       .  S
C1014      O1018   1.369       .  S
O1016      H1020   0.992       .  S
O1018      H1019   0.991       .  S
C1021      C1022   1.417       .  A
C1021      C1026   1.427       .  A
C1022      C1023   1.418       .  A
C1022      H1027   1.075       .  S
C1023      C1024   1.428       .  A
C1023      O1028   1.369       .  S
C1024      C1025   1.404       .  A
C1025      C1026   1.398       .  A
C1025      H1029   1.084       .  S
C1026      O1030   1.367       .  S
O1028      H1032   0.993       .  S
O1030      H1031   0.991       .  S
C1033      C1034   1.422   1_556  A
C1033      C1038   1.435       .  A
C1034      C1035   1.407       .  A
C1034      H1039   1.084       .  S
C1035      C1036   1.401       .  A
C1035      O1040   1.371       .  S
C1036      C1037   1.388   1_554  A
C1037      C1038   1.390       .  A
C1037      H1041   1.086       .  S
C1038      O1042   1.373       .  S
O1040      H1044   0.992       .  S
O1042      H1043   0.993       .  S
C1045      C1046   1.418       .  A
C1045      C1050   1.424   1_556  A
C1046      C1047   1.411       .  A
C1046      H1051   1.074       .  S
C1047      C1048   1.416   1_556  A
C1047      O1052   1.374       .  S
C1048      C1049   1.412       .  A
C1049      C1050   1.403       .  A
C1049      H1053   1.075       .  S
C1050      O1054   1.372       .  S
O1052      H1056   0.992       .  S
O1054      H1055   0.992       .  S
C1057      C1058   1.427       .  A
C1057      C1062   1.427       .  A
C1058      C1059   1.413       .  A
C1058      H1063   1.081       .  S
C1059      C1060   1.412       .  A
C1059      O1064   1.371       .  S
C1060      C1061   1.403       .  A
C1061      C1062   1.398       .  A
C1061      H1065   1.076       .  S
C1062      O1066   1.363       .  S
O1064      H1068   0.991       .  S
O1066      H1067   0.992       .  S
C1069      C1070   1.417   1_556  A
C1069      C1074   1.430       .  A
C1070      C1071   1.396       .  A
C1070      H1075   1.071       .  S
C1071      C1072   1.394   1_554  A
C1071      O1076   1.372       .  S
C1072      C1073   1.397       .  A
C1073      C1074   1.409       .  A
C1073      H1077   1.084       .  S
C1074      O1078   1.377       .  S
O1076      H1080   0.992       .  S
O1078      H1079   0.993       .  S
C1081      C1082   1.417   1_545  A
C1081      C1086   1.429   1_545  A
C1082      C1083   1.408       .  A
C1082      H1087   1.078       .  S
C1083      C1084   1.424   1_565  A
C1083      O1088   1.370       .  S
C1084      C1085   1.406   1_545  A
C1085      C1086   1.401       .  A
C1085      H1089   1.084       .  S
C1086      O1090   1.370       .  S
O1088      H1092   0.991       .  S
O1090      H1091   0.993   1_565  S
C1093      C1094   1.418       .  A
C1093      C1098   1.443       .  A
C1094      C1095   1.415       .  A
C1094      H1099   1.073       .  S
C1095      C1096   1.424       .  A
C1095      O1100   1.370       .  S
C1096      C1097   1.399       .  A
C1097      C1098   1.393       .  A
C1097      H1101   1.082       .  S
C1098      O1102   1.366       .  S
O1100      H1104   0.991       .  S
O1102      H1103   0.992       .  S
C1105      C1106   1.422       .  A
C1105      C1110   1.434   1_545  A
C1106      C1107   1.405       .  A
C1106      H1111   1.083       .  S
C1107      C1108   1.402       .  A
C1107      O1112   1.371       .  S
C1108      C1109   1.395   1_545  A
C1109      C1110   1.384       .  A
C1109      H1113   1.085       .  S
C1110      O1114   1.376       .  S
O1112      H1116   0.992       .  S
O1114      H1115   0.992       .  S
C1117      C1118   1.400       .  A
C1117      C1122   1.435       .  A
C1118      C1119   1.389       .  A
C1118      H1123   1.067       .  S
C1119      C1120   1.419       .  A
C1119      O1124   1.368       .  S
C1120      C1121   1.406       .  A
C1121      C1122   1.413       .  A
C1121      H1125   1.081       .  S
C1122      O1126   1.375       .  S
O1124      H1128   0.989   1_556  S
O1126      H1127   0.992       .  S
C1129      C1130   1.418       .  A
C1129      C1134   1.422       .  A
C1130      C1131   1.404       .  A
C1130      H1135   1.073       .  S
C1131      C1132   1.422       .  A
C1131      O1136   1.369       .  S
C1132      C1133   1.420       .  A
C1133      C1134   1.412       .  A
C1133      H1137   1.079       .  S
C1134      O1138   1.378       .  S
O1136      H1140   0.992       .  S
O1138      H1139   0.992       .  S
C1141      C1142   1.418       .  A
C1141      C1146   1.428       .  A
C1142      C1143   1.386       .  A
C1142      H1147   1.085       .  S
C1143      C1144   1.406       .  A
C1143      O1148   1.372       .  S
C1144      C1145   1.402       .  A
C1145      C1146   1.407       .  A
C1145      H1149   1.083       .  S
C1146      O1150   1.371       .  S
O1148      H1152   0.992       .  S
O1150      H1151   0.992       .  S
C1153      C1154   1.416       .  A
C1153      C1158   1.419       .  A
C1154      C1155   1.407       .  A
C1154      H1159   1.084       .  S
C1155      C1156   1.418       .  A
C1155      O1160   1.375       .  S
C1156      C1157   1.420       .  A
C1157      C1158   1.406       .  A
C1157      H1161   1.077       .  S
C1158      O1162   1.372       .  S
O1160      H1164   0.992       .  S
O1162      H1163   0.992       .  S
C1165      C1166   1.420       .  A
C1165      C1170   1.413       .  A
C1166      C1167   1.419       .  A
C1166      H1171   1.075       .  S
C1167      C1168   1.420       .  A
C1167      O1172   1.372       .  S
C1168      C1169   1.421       .  A
C1169      C1170   1.395       .  A
C1169      H1173   1.081       .  S
C1170      O1174   1.371       .  S
O1172      H1176   0.993       .  S
O1174      H1175   0.992       .  S
C1177      C1178   1.415       .  A
C1177      C1182   1.425       .  A
C1178      C1179   1.387       .  A
C1178      H1183   1.080       .  S
C1179      C1180   1.399       .  A
C1179      O1184   1.374       .  S
C1180      C1181   1.398       .  A
C1181      C1182   1.410       .  A
C1181      H1185   1.083       .  S
C1182      O1186   1.375       .  S
O1184      H1188   0.992       .  S
O1186      H1187   0.992       .  S
C1189      C1190   1.411       .  A
C1189      C1194   1.420       .  A
C1190      C1191   1.394       .  A
C1190      H1195   1.076       .  S
C1191      C1192   1.419       .  A
C1191      O1196   1.369       .  S
C1192      C1193   1.421       .  A
C1193      C1194   1.421       .  A
C1193      H1197   1.083       .  S
C1194      O1198   1.374       .  S
O1196      H1200   0.993       .  S
O1198      H1199   0.992       .  S
C1201      C1202   1.429       .  A
C1201      C1206   1.420       .  A
C1202      C1203   1.416       .  A
C1202      H1207   1.072       .  S
C1203      C1204   1.413       .  A
C1203      O1208   1.375       .  S
C1204      C1205   1.425       .  A
C1205      C1206   1.407       .  A
C1205      H1209   1.077       .  S
C1206      O1210   1.376       .  S
O1208      H1212   0.993       .  S
O1210      H1211   0.993       .  S
C1213      C1214   1.405       .  A
C1213      C1218   1.433       .  A
C1214      C1215   1.400       .  A
C1214      H1219   1.069       .  S
C1215      C1216   1.424       .  A
C1215      O1220   1.372       .  S
C1216      C1217   1.407       .  A
C1217      C1218   1.405       .  A
C1217      H1221   1.081       .  S
C1218      O1222   1.373       .  S
O1220      H1224   0.992       .  S
O1222      H1223   0.992       .  S
C1225      C1226   1.419       .  A
C1225      C1230   1.428       .  A
C1226      C1227   1.411       .  A
C1226      H1231   1.079       .  S
C1227      C1228   1.408       .  A
C1227      O1232   1.371       .  S
C1228      C1229   1.400       .  A
C1229      C1230   1.389       .  A
C1229      H1233   1.084       .  S
C1230      O1234   1.377       .  S
O1232      H1236   0.992       .  S
O1234      H1235   0.992       .  S
C1237      C1238   1.408       .  A
C1237      C1242   1.419       .  A
C1238      C1239   1.399       .  A
C1238      H1243   1.078       .  S
C1239      C1240   1.429       .  A
C1239      O1244   1.370       .  S
C1240      C1241   1.415       .  A
C1241      C1242   1.411       .  A
C1241      H1245   1.083       .  S
C1242      O1246   1.372       .  S
O1244      H1248   0.992       .  S
O1246      H1247   0.992       .  S
C1249      C1250   1.420       .  A
C1249      C1254   1.418       .  A
C1250      C1251   1.416       .  A
C1250      H1255   1.066       .  S
C1251      C1252   1.422       .  A
C1251      O1256   1.371       .  S
C1252      C1253   1.408       .  A
C1253      C1254   1.386       .  A
C1253      H1257   1.076       .  S
C1254      O1258   1.372       .  S
O1256      H1260   0.991       .  S
O1258      H1259   0.991       .  S
C1261      C1262   1.411       .  A
C1261      C1266   1.429       .  A
C1262      C1263   1.416       .  A
C1262      H1267   1.079       .  S
C1263      C1264   1.423       .  A
C1263      O1268   1.370       .  S
C1264      C1265   1.407       .  A
C1265      C1266   1.400       .  A
C1265      H1269   1.081       .  S
C1266      O1270   1.378       .  S
O1268      H1272   0.991       .  S
O1270      H1271   0.992       .  S
C1273      C1274   1.401       .  A
C1273      C1278   1.392       .  A
C1274      C1275   1.416       .  A
C1274      H1279   1.083       .  S
C1275      C1276   1.422       .  A
C1275      O1280   1.378       .  S
C1276      C1277   1.423       .  A
C1277      C1278   1.381       .  A
C1277      H1281   1.079       .  S
C1278      O1282   1.374       .  S
O1280      H1284   0.992       .  S
O1282      H1283   0.992       .  S
C1285      C1286   1.403       .  A
C1285      C1290   1.420       .  A
C1286      C1287   1.412       .  A
C1286      H1291   1.083       .  S
C1287      C1288   1.433       .  A
C1287      O1292   1.364       .  S
C1288      C1289   1.403       .  A
C1289      C1290   1.381       .  A
C1289      H1293   1.083       .  S
C1290      O1294   1.362   1_565  S
O1292      H1296   0.992       .  S
O1294      H1295   0.993       .  S
C1297      C1298   1.422       .  A
C1297      C1302   1.420       .  A
C1298      C1299   1.414       .  A
C1298      H1303   1.078       .  S
C1299      C1300   1.421       .  A
C1299      O1304   1.369       .  S
C1300      C1301   1.417       .  A
C1301      C1302   1.408       .  A
C1301      H1305   1.077       .  S
C1302      O1306   1.376       .  S
O1304      H1308   0.992       .  S
O1306      H1307   0.991       .  S
C1309      C1310   1.419       .  A
C1309      C1314   1.421       .  A
C1310      C1311   1.382       .  A
C1310      H1315   1.079       .  S
C1311      C1312   1.395       .  A
C1311      O1316   1.374       .  S
C1312      C1313   1.399       .  A
C1313      C1314   1.407       .  A
C1313      H1317   1.083       .  S
C1314      O1318   1.374       .  S
O1316      H1320   0.992       .  S
O1318      H1319   0.992       .  S
C1321      C1322   1.416       .  A
C1321      C1326   1.426       .  A
C1322      C1323   1.410       .  A
C1322      H1327   1.082       .  S
C1323      C1324   1.418       .  A
C1323      O1328   1.374       .  S
C1324      C1325   1.410       .  A
C1325      C1326   1.401       .  A
C1325      H1329   1.078       .  S
C1326      O1330   1.374       .  S
O1328      H1332   0.991       .  S
O1330      H1331   0.992       .  S
C1333      C1334   1.422       .  A
C1333      C1338   1.426       .  A
C1334      C1335   1.405       .  A
C1334      H1339   1.072       .  S
C1335      C1336   1.412       .  A
C1335      O1340   1.375       .  S
C1336      C1337   1.418       .  A
C1337      C1338   1.410       .  A
C1337      H1341   1.079       .  S
C1338      O1342   1.373       .  S
O1340      H1344   0.992       .  S
O1342      H1343   0.992       .  S
C1345      C1346   1.402       .  A
C1345      C1350   1.421       .  A
C1346      C1347   1.407       .  A
C1346      H1351   1.077   1_565  S
C1347      C1348   1.427       .  A
C1347      O1352   1.375       .  S
C1348      C1349   1.417       .  A
C1349      C1350   1.410       .  A
C1349      H1353   1.071       .  S
C1350      O1354   1.372       .  S
O1352      H1356   0.991       .  S
O1354      H1355   0.991       .  S
C1357      C1358   1.417       .  A
C1357      C1362   1.426       .  A
C1358      C1359   1.398       .  A
C1358      H1363   1.082       .  S
C1359      C1360   1.398       .  A
C1359      O1364   1.371       .  S
C1360      C1361   1.393       .  A
C1361      C1362   1.393       .  A
C1361      H1365   1.085       .  S
C1362      O1366   1.371       .  S
O1364      H1368   0.991       .  S
O1366      H1367   0.993       .  S
C1369      C1370   1.412       .  A
C1369      C1374   1.425       .  A
C1370      C1371   1.412       .  A
C1370      H1375   1.082       .  S
C1371      C1372   1.419       .  A
C1371      O1376   1.369       .  S
C1372      C1373   1.410       .  A
C1373      C1374   1.400       .  A
C1373      H1377   1.081       .  S
C1374      O1378   1.372       .  S
O1376      H1380   0.992       .  S
O1378      H1379   0.992       .  S
C1381      C1382   1.413       .  A
C1381      C1386   1.416       .  A
C1382      C1383   1.394       .  A
C1382      H1387   1.082       .  S
C1383      C1384   1.421       .  A
C1383      O1388   1.371   1_565  S
C1384      C1385   1.422       .  A
C1385      C1386   1.420       .  A
C1385      H1389   1.083       .  S
C1386      O1390   1.372       .  S
O1388      H1392   0.992       .  S
O1390      H1391   0.992       .  S
C1393      C1394   1.403       .  A
C1393      C1398   1.414       .  A
C1394      C1395   1.389       .  A
C1394      H1399   1.083       .  S
C1395      C1396   1.436       .  A
C1395      O1400   1.369   1_565  S
C1396      C1397   1.425       .  A
C1397      C1398   1.409       .  A
C1397      H1401   1.083       .  S
C1398      O1402   1.369       .  S
O1400      H1404   0.992       .  S
O1402      H1403   0.992       .  S
C1405      C1406   1.414       .  A
C1405      C1410   1.424       .  A
C1406      C1407   1.390       .  A
C1406      H1411   1.078       .  S
C1407      C1408   1.402       .  A
C1407      O1412   1.373       .  S
C1408      C1409   1.396       .  A
C1409      C1410   1.402       .  A
C1409      H1413   1.084       .  S
C1410      O1414   1.372       .  S
O1412      H1416   0.992       .  S
O1414      H1415   0.992       .  S
C1417      C1418   1.412       .  A
C1417      C1422   1.417       .  A
C1418      C1419   1.398       .  A
C1418      H1423   1.080       .  S
C1419      C1420   1.428       .  A
C1419      O1424   1.369       .  S
C1420      C1421   1.419       .  A
C1421      C1422   1.411       .  A
C1421      H1425   1.069       .  S
C1422      O1426   1.373       .  S
O1424      H1428   0.992       .  S
O1426      H1427   0.992       .  S
C1429      C1430   1.421       .  A
C1429      C1434   1.421       .  A
C1430      C1431   1.411       .  A
C1430      H1435   1.082       .  S
C1431      C1432   1.422       .  A
C1431      O1436   1.372       .  S
C1432      C1433   1.394       .  A
C1433      C1434   1.378       .  A
C1433      H1437   1.069   1_565  S
C1434      O1438   1.354       .  S
O1436      H1440   0.992       .  S
O1438      H1439   0.994       .  S
C1441      C1442   1.413       .  A
C1441      C1446   1.427       .  A
C1442      C1443   1.401       .  A
C1442      H1447   1.084       .  S
C1443      C1444   1.426       .  A
C1443      O1448   1.370       .  S
C1444      C1445   1.411       .  A
C1445      C1446   1.408       .  A
C1445      H1449   1.074       .  S
C1446      O1450   1.369       .  S
O1448      H1452   0.992       .  S
O1450      H1451   0.992       .  S
C1453      C1454   1.392       .  A
C1453      C1458   1.399       .  A
C1454      C1455   1.387       .  A
C1454      H1459   1.085       .  S
C1455      C1456   1.430       .  A
C1455      O1460   1.369       .  S
C1456      C1457   1.421       .  A
C1457      C1458   1.401       .  A
C1457      H1461   1.084       .  S
C1458      O1462   1.371       .  S
O1460      H1464   0.992       .  S
O1462      H1463   0.992       .  S
C1465      C1466   1.410       .  A
C1465      C1470   1.421       .  A
C1466      C1467   1.400       .  A
C1466      H1471   1.077       .  S
C1467      C1468   1.423       .  A
C1467      O1472   1.370       .  S
C1468      C1469   1.410       .  A
C1469      C1470   1.400       .  A
C1469      H1473   1.083       .  S
C1470      O1474   1.373       .  S
O1472      H1476   0.992       .  S
O1474      H1475   0.992       .  S
C1477      C1478   1.413       .  A
C1477      C1482   1.420       .  A
C1478      C1479   1.412       .  A
C1478      H1483   1.083       .  S
C1479      C1480   1.422       .  A
C1479      O1484   1.366       .  S
C1480      C1481   1.410       .  A
C1481      C1482   1.383       .  A
C1481      H1485   1.081       .  S
C1482      O1486   1.372   1_655  S
O1484      H1488   0.992       .  S
O1486      H1487   0.991       .  S
C1489      C1490   1.418       .  A
C1489      C1494   1.419       .  A
C1490      C1491   1.404       .  A
C1490      H1495   1.078       .  S
C1491      C1492   1.419       .  A
C1491      O1496   1.372       .  S
C1492      C1493   1.416       .  A
C1493      C1494   1.403       .  A
C1493      H1497   1.083       .  S
C1494      O1498   1.374       .  S
O1496      H1500   0.992       .  S
O1498      H1499   0.992       .  S
C1501      C1502   1.415       .  A
C1501      C1506   1.423       .  A
C1502      C1503   1.380       .  A
C1502      H1507   1.080       .  S
C1503      C1504   1.397       .  A
C1503      O1508   1.373       .  S
C1504      C1505   1.395       .  A
C1505      C1506   1.400       .  A
C1505      H1509   1.083       .  S
C1506      O1510   1.371       .  S
O1508      H1512   0.992       .  S
O1510      H1511   0.992       .  S
C1513      C1514   1.412       .  A
C1513      C1518   1.421       .  A
C1514      C1515   1.404       .  A
C1514      H1519   1.082       .  S
C1515      C1516   1.420       .  A
C1515      O1520   1.372       .  S
C1516      C1517   1.408       .  A
C1517      C1518   1.407       .  A
C1517      H1521   1.080       .  S
C1518      O1522   1.372       .  S
O1520      H1524   0.992       .  S
O1522      H1523   0.990       .  S
C1525      C1526   1.416       .  A
C1525      C1530   1.421       .  A
C1526      C1527   1.400       .  A
C1526      H1531   1.083       .  S
C1527      C1528   1.417       .  A
C1527      O1532   1.374       .  S
C1528      C1529   1.417       .  A
C1529      C1530   1.405       .  A
C1529      H1533   1.077       .  S
C1530      O1534   1.372       .  S
O1532      H1536   0.992       .  S
O1534      H1535   0.992       .  S
C1537      C1538   1.420       .  A
C1537      C1542   1.414       .  A
C1538      C1539   1.412       .  A
C1538      H1543   1.079       .  S
C1539      C1540   1.416       .  A
C1539      O1544   1.373       .  S
C1540      C1541   1.414       .  A
C1541      C1542   1.394       .  A
C1541      H1545   1.082       .  S
C1542      O1546   1.371       .  S
O1544      H1548   0.992       .  S
O1546      H1547   0.992       .  S
C1549      C1550   1.416       .  A
C1549      C1554   1.424       .  A
C1550      C1551   1.401       .  A
C1550      H1555   1.082       .  S
C1551      C1552   1.401       .  A
C1551      O1556   1.371       .  S
C1552      C1553   1.396       .  A
C1553      C1554   1.400       .  A
C1553      H1557   1.084       .  S
C1554      O1558   1.373       .  S
O1556      H1560   0.991       .  S
O1558      H1559   0.992       .  S
C1561      C1562   1.403       .  A
C1561      C1566   1.421       .  A
C1562      C1563   1.403       .  A
C1562      H1567   1.077       .  S
C1563      C1564   1.434       .  A
C1563      O1568   1.369       .  S
C1564      C1565   1.413       .  A
C1565      C1566   1.408       .  A
C1565      H1569   1.084       .  S
C1566      O1570   1.370       .  S
O1568      H1572   0.992       .  S
O1570      H1571   0.992       .  S
C1573      C1574   1.418       .  A
C1573      C1578   1.429       .  A
C1574      C1575   1.402       .  A
C1574      H1579   1.072       .  S
C1575      C1576   1.416       .  A
C1575      O1580   1.373       .  S
C1576      C1577   1.417       .  A
C1577      C1578   1.409       .  A
C1577      H1581   1.078       .  S
C1578      O1582   1.375       .  S
O1580      H1584   0.992       .  S
O1582      H1583   0.992       .  S
C1585      C1586   1.422       .  A
C1585      C1590   1.411       .  A
C1586      C1587   1.411       .  A
C1586      H1591   1.083       .  S
C1587      C1588   1.426       .  A
C1587      O1592   1.372       .  S
C1588      C1589   1.413       .  A
C1589      C1590   1.390       .  A
C1589      H1593   1.063       .  S
C1590      O1594   1.365       .  S
O1592      H1596   0.992       .  S
O1594      H1595   0.992       .  S
C1597      C1598   1.421       .  A
C1597      C1602   1.433       .  A
C1598      C1599   1.413       .  A
C1598      H1603   1.076       .  S
C1599      C1600   1.408       .  A
C1599      O1604   1.371       .  S
C1600      C1601   1.399       .  A
C1601      C1602   1.393       .  A
C1601      H1605   1.083       .  S
C1602      O1606   1.379       .  S
O1604      H1608   0.992       .  S
O1606      H1607   0.992       .  S
C1609      C1610   1.416       .  A
C1609      C1614   1.433       .  A
C1610      C1611   1.400       .  A
C1610      H1615   1.081       .  S
C1611      C1612   1.425       .  A
C1611      O1616   1.370       .  S
C1612      C1613   1.400       .  A
C1613      C1614   1.406       .  A
C1613      H1617   1.083       .  S
C1614      O1618   1.366       .  S
O1616      H1620   0.992       .  S
O1618      H1619   0.993       .  S
C1621      C1622   1.411       .  A
C1621      C1626   1.426       .  A
C1622      C1623   1.412       .  A
C1622      H1627   1.080       .  S
C1623      C1624   1.430       .  A
C1623      O1628   1.372       .  S
C1624      C1625   1.410       .  A
C1625      C1626   1.396       .  A
C1625      H1629   1.084       .  S
C1626      O1630   1.371       .  S
O1628      H1632   0.992       .  S
O1630      H1631   0.992       .  S
C1633      C1634   1.390       .  A
C1633      C1638   1.420       .  A
C1634      C1635   1.374       .  A
C1634      H1639   1.078       .  S
C1635      C1636   1.436       .  A
C1635      O1640   1.366   1_655  S
C1636      C1637   1.429       .  A
C1637      C1638   1.427       .  A
C1637      H1641   1.067       .  S
C1638      O1642   1.371       .  S
O1640      H1644   0.988       .  S
O1642      H1643   0.991       .  S
C1645      C1646   1.423       .  A
C1645      C1650   1.435       .  A
C1646      C1647   1.393       .  A
C1646      H1651   1.083       .  S
C1647      C1648   1.392       .  A
C1647      O1652   1.371       .  S
C1648      C1649   1.386       .  A
C1649      C1650   1.389       .  A
C1649      H1653   1.086       .  S
C1650      O1654   1.365       .  S
O1652      H1656   0.992       .  S
O1654      H1655   0.992       .  S
