geometry optimzed in LAMMPS
_audit_creation_date              2020-11-30 
_audit_creation_method            'lammps2cif' 
_symmetry_space_group_name_H-M    'P1' 
_symmetry_Int_Tables_number       1 
_symmetry_cell_setting            triclinic 
loop_ 
_symmetry_equiv_pos_as_xyz 
  x,y,z 
_cell_length_a                    42.423263216873956 
_cell_length_b                    42.30672843549569 
_cell_length_c                    42.26671305549832 
_cell_angle_alpha                 90.02654881885178 
_cell_angle_beta                  89.87964682608072 
_cell_angle_gamma                 89.88539360141993 
loop_ 
_atom_site_label 
_atom_site_type_symbol 
_atom_site_fract_x 
_atom_site_fract_y 
_atom_site_fract_z 
_atom_site_charge 
O1          O  0.58206276  0.34442905  0.47417812    -0.73960
O2          O  0.59126714  0.32413808  0.52333610    -0.52870
C3          C  0.59745013  0.34238596  0.49999548     0.79770
O4          O  0.42081563  0.31716288  0.49487816    -0.58560
O5          O  0.42002342  0.31515989  0.44250517    -0.51590
C6          C  0.41069698  0.32738259  0.46856680     0.71780
O7          O  0.49327229  0.34640588  0.56431365    -0.73120
O8          O  0.54413849  0.32895906  0.56815990    -0.53680
C9          C  0.52060461  0.34597416  0.57691339     0.77780
O10         O  0.51787040  0.30451492  0.39860758    -0.58260
O11         O  0.46594985  0.30790110  0.39611339    -0.51380
C12         C  0.49322752  0.31610343  0.38618969     0.74380
Zr13       Zr  0.53603810  0.32578805  0.44794900     2.54710
O14         O  0.52202658  0.38019248  0.43544689    -0.78830
O15         O  0.57539532  0.33912188  0.40806856    -0.92250
Zr16       Zr  0.47215643  0.33156832  0.51399975     2.64680
O17         O  0.47871108  0.38782646  0.50329769    -0.97200
O18         O  0.43049283  0.35552994  0.54573951    -0.79260
O19         O  0.52647820  0.33179334  0.50272166    -0.82620
O20         O  0.48163493  0.32719647  0.45900190    -2.17330
O21         O  0.52477838  0.23592018  0.40174025    -0.66010
O22         O  0.47189727  0.24251451  0.39770423    -0.50580
C23         C  0.49921971  0.23862117  0.38499317     0.72760
O24         O  0.49348395  0.24298241  0.58106514    -0.58920
O25         O  0.54308091  0.26368728  0.58128985    -0.50900
C26         C  0.51826019  0.25361350  0.59565399     0.74560
O27         O  0.41741385  0.24637401  0.51005201    -0.70310
O28         O  0.41389690  0.24799328  0.45662596    -0.48990
C29         C  0.40097989  0.24792742  0.48417583     0.75940
O30         O  0.59730777  0.23645447  0.47682281    -0.65640
O31         O  0.59947367  0.26065684  0.52488924    -0.52840
C32         C  0.61292563  0.24787795  0.50068593     0.74330
Zr33       Zr  0.54101368  0.23263286  0.45869794     2.77540
O34         O  0.53490676  0.17621325  0.46852349    -0.96390
O35         O  0.57625012  0.20296666  0.42414083    -0.77210
Zr36       Zr  0.47398204  0.23806933  0.52525856     2.70070
O37         O  0.47800010  0.18117128  0.51773600    -0.78460
O38         O  0.44008377  0.21267813  0.56430209    -0.97540
Zr39       Zr  0.54872638  0.28725666  0.52923051     2.21500
Zr40       Zr  0.46190337  0.27581960  0.44335359     2.11130
O41         O  0.48518134  0.23089437  0.46986048    -2.46230
O42         O  0.52960500  0.23623145  0.51427886    -0.78250
O43         O  0.51707753  0.27586468  0.43328685    -0.70450
O44         O  0.49373077  0.28815340  0.54128572    -2.31410
O45         O  0.56049689  0.28319827  0.47399397    -2.27610
O46         O  0.45226088  0.28190556  0.49860688    -0.72210
H47         H  0.47181198  0.34419318  0.44752421     0.79790
H48         H  0.48844171  0.29244036  0.56297157     0.80880
H49         H  0.47573591  0.21170564  0.46197756     0.83100
H50         H  0.58227307  0.28676004  0.46867055     0.80710
H51         H  0.42336364  0.33838537  0.55998302     0.43740
H52         H  0.42703227  0.23003346  0.57308919     0.42710
H53         H  0.49057907  0.17374628  0.53599660     0.42390
H54         H  0.53503495  0.17404152  0.49183124     0.40320
H55         H  0.58831414  0.21931687  0.41255373     0.43460
H56         H  0.59389434  0.32580674  0.41326411     0.38240
H57         H  0.53737671  0.39309917  0.44741188     0.44360
H58         H  0.48322468  0.38990031  0.48048673     0.40770
H59         H  0.51317200  0.17086633  0.46202796     0.45690
H60         H  0.58208061  0.36096681  0.41307879     0.44410
H61         H  0.45777546  0.39762740  0.50658908     0.44550
H62         H  0.42515285  0.19968222  0.55190666     0.44910
O63         O  0.57873677  0.51689468  0.32500167    -0.73960
O64         O  0.58885491  0.47079096  0.29878237    -0.52870
C65         C  0.59247333  0.48996559  0.32187822     0.79770
O66         O  0.42625496  0.52590962  0.30049693    -0.58560
O67         O  0.42757420  0.57208173  0.27276300    -0.51590
C68         C  0.41456916  0.55245542  0.29178816     0.71780
O69         O  0.49370823  0.44766888  0.31799714    -0.73120
O70         O  0.53926086  0.43083518  0.29505311    -0.53680
C71         C  0.51627368  0.42794481  0.31479567     0.77780
O72         O  0.52489336  0.60541126  0.29896358    -0.58260
O73         O  0.47987010  0.61378299  0.27080115    -0.51380
C74         C  0.50190725  0.62271659  0.28962422     0.74380
Zr75       Zr  0.54417007  0.55216718  0.29615404     2.54710
O76         O  0.53643671  0.56429233  0.35192873    -0.78830
O77         O  0.59281375  0.58270971  0.29556445    -0.92250
Zr78       Zr  0.47330090  0.49475118  0.29540417     2.64680
O79         O  0.46808272  0.50174954  0.35238008    -0.97200
O80         O  0.42973635  0.45739206  0.29375504    -0.79260
O81         O  0.52824066  0.49923665  0.29975674    -0.82620
O82         O  0.48898265  0.54784434  0.29263810    -2.17330
O83         O  0.54141155  0.60218104  0.20778090    -0.66010
O84         O  0.48865960  0.60765644  0.20614494    -0.50580
C85         C  0.51629880  0.61975886  0.20719813     0.72760
O86         O  0.49572861  0.42553635  0.20910261    -0.58920
O87         O  0.54501488  0.42121672  0.23004199    -0.50900
C88         C  0.51933958  0.40897927  0.21961771     0.74560
O89         O  0.42589551  0.50182069  0.20912794    -0.70310
O90         O  0.42526361  0.55522325  0.21244974    -0.48990
C91         C  0.41083743  0.52848879  0.21121576     0.75940
O92         O  0.60668728  0.52191236  0.20911214    -0.65640
O93         O  0.60524407  0.47407309  0.23410272    -0.52840
C94         C  0.62028359  0.49735901  0.22134385     0.74330
Zr95       Zr  0.55290731  0.54420546  0.20294652     2.77540
O96         O  0.54953786  0.53671317  0.14584754    -0.96390
O97         O  0.59228844  0.57560971  0.17526746    -0.77210
Zr98       Zr  0.48131833  0.48280070  0.20253727     2.70070
O99         O  0.48947338  0.49036338  0.14602643    -0.78460
O100        O  0.44643861  0.44753908  0.17341569    -0.97540
Zr101      Zr  0.55175854  0.47165078  0.25640719     2.21500
Zr102      Zr  0.47417901  0.56503298  0.24096175     2.11130
O103        O  0.49697446  0.53724188  0.19675045    -2.46230
O104        O  0.53745639  0.48945348  0.20459872    -0.78250
O105        O  0.52953928  0.57099659  0.24592014    -0.70450
O106        O  0.49597955  0.46540536  0.25376228    -2.31410
O107        O  0.56826896  0.52553371  0.25406448    -2.27610
O108        O  0.45902671  0.51145299  0.24495215    -0.72210
H109        H  0.47900666  0.56024640  0.30904839     0.79790
H110        H  0.48904939  0.44427575  0.25853695     0.80880
H111        H  0.48928601  0.54614479  0.17719669     0.83100
H112        H  0.59000975  0.52845832  0.25984393     0.80710
H113        H  0.42652204  0.45095827  0.31604601     0.43740
H114        H  0.43227757  0.43849042  0.18970338     0.42710
H115        H  0.50160346  0.47150315  0.13927125     0.42390
H116        H  0.54743160  0.51362025  0.14284245     0.40320
H117        H  0.60420507  0.58636363  0.19226668     0.43460
H118        H  0.60953673  0.56760657  0.30180165     0.38240
H119        H  0.52476382  0.54587717  0.36036238     0.44360
H120        H  0.46434630  0.52466457  0.35535576     0.40770
H121        H  0.52902363  0.54570137  0.13929183     0.45690
H122        H  0.59084010  0.59720613  0.31386233     0.44410
H123        H  0.44766443  0.49177860  0.35774668     0.44550
H124        H  0.43269647  0.46157986  0.16072678     0.44910
O125        O  0.53443740  0.70101187  0.40426402    -0.73960
O126        O  0.48911290  0.72898690  0.39571981    -0.52870
C127        C  0.50993596  0.70854173  0.38779588     0.79770
O128        O  0.51637781  0.71657520  0.56938265    -0.58560
O129        O  0.56397565  0.74128940  0.57336877    -0.51590
C130        C  0.54159609  0.72429843  0.58437718     0.71780
O131        O  0.45255965  0.69809614  0.48315069    -0.73120
O132        O  0.44316862  0.72779114  0.43905709    -0.53680
C133        C  0.43785666  0.70432342  0.45722803     0.77780
O134        O  0.60285676  0.70146347  0.48861503    -0.58260
O135        O  0.60964498  0.73358800  0.53150306    -0.51380
C136        C  0.61614927  0.70920553  0.51488133     0.74380
Zr137      Zr  0.55988045  0.71672884  0.45385582     2.54710
O138        O  0.55726382  0.65927646  0.45524829    -0.78830
O139        O  0.60468147  0.71438311  0.41783115    -0.92250
Zr140      Zr  0.49260353  0.72141822  0.51734140     2.64680
O141        O  0.49578166  0.66472079  0.52703816    -0.97200
O142        O  0.44665413  0.72434774  0.55191391    -0.79260
O143        O  0.50514024  0.71791551  0.46309329    -0.82620
O144        O  0.54704240  0.72076434  0.50808091    -2.17330
O145        O  0.61679313  0.80172683  0.46230920    -0.66010
O146        O  0.61729859  0.79692393  0.51554142    -0.50580
C147        C  0.63179231  0.79844447  0.48887212     0.72760
O148        O  0.43590296  0.81386646  0.49287245    -0.58920
O149        O  0.43444593  0.79170068  0.44380847    -0.50900
C150        C  0.42072626  0.80335613  0.46839130     0.74560
O151        O  0.50571475  0.80836290  0.56909739    -0.70310
O152        O  0.55854500  0.80351760  0.57112872    -0.48990
C153        C  0.53171274  0.80563354  0.58503950     0.75940
O154        O  0.54307921  0.80630417  0.38915908    -0.65640
O155        O  0.49137580  0.79320673  0.38994463    -0.52840
C156        C  0.51726442  0.79796109  0.37494504     0.74330
Zr157      Zr  0.56079724  0.81101937  0.44565996     2.77540
O158        O  0.55599922  0.86774630  0.45422425    -0.96390
O159        O  0.59659889  0.83678729  0.40869579    -0.77210
Zr160      Zr  0.49162361  0.81567860  0.51188536     2.70070
O161        O  0.50410914  0.87119874  0.50357930    -0.78460
O162        O  0.45630645  0.84803159  0.54396716    -0.97540
Zr163      Zr  0.48507033  0.76491850  0.43921005     2.21500
Zr164      Zr  0.56753996  0.77060741  0.52515716     2.11130
O165        O  0.54741195  0.81732767  0.50077271    -2.46230
O166        O  0.50502106  0.81445442  0.45649195    -0.78250
O167        O  0.58116853  0.76535176  0.47092433    -0.70450
O168        O  0.47105340  0.76646266  0.49367172    -2.31410
O169        O  0.54012611  0.76188857  0.42854583    -2.27610
O170        O  0.51267646  0.77001547  0.53580107    -0.72210
H171        H  0.55529806  0.70326112  0.52014040     0.79790
H172        H  0.44908280  0.76237730  0.49766358     0.80880
H173        H  0.55719361  0.83585642  0.50978111     0.83100
H174        H  0.54536225  0.75700882  0.40695371     0.80710
H175        H  0.42827466  0.72213854  0.53769244     0.43740
H176        H  0.44512261  0.83276400  0.55772501     0.42710
H177        H  0.49045535  0.87768332  0.48574412     0.42390
H178        H  0.57780712  0.87504814  0.45813691     0.40320
H179        H  0.60795076  0.81920245  0.39816264     0.43460
H180        H  0.59951162  0.72965617  0.40086538     0.38240
H181        H  0.54225773  0.65457544  0.47258329     0.44360
H182        H  0.51761612  0.66090911  0.53434901     0.40770
H183        H  0.55047655  0.87650578  0.43323043     0.45690
H184        H  0.60298047  0.69340899  0.40757708     0.44410
H185        H  0.48256439  0.66126189  0.54605483     0.44550
H186        H  0.47021309  0.85988013  0.55852799     0.44910
O187        O  0.68737134  0.45275677  0.50946597    -0.73960
O188        O  0.71206462  0.43530627  0.46471041    -0.52870
C189        C  0.69066601  0.43390542  0.48615398     0.79770
O190        O  0.69997684  0.60256928  0.49146334    -0.58560
O191        O  0.73219036  0.61192011  0.53361972    -0.51590
C192        C  0.70812175  0.61784448  0.51635925     0.71780
O193        O  0.68220745  0.51917458  0.42864133    -0.73120
O194        O  0.70971620  0.47441451  0.41677106    -0.53680
C195        C  0.68589427  0.49270446  0.41411733     0.77780
O196        O  0.69943552  0.53294965  0.57615846    -0.58260
O197        O  0.73266377  0.57523486  0.57816830    -0.51380
C198        C  0.70828976  0.55983847  0.58715662     0.74380
Zr199      Zr  0.71236434  0.49628744  0.53394953     2.54710
O200        O  0.65580762  0.49640059  0.54378415    -0.78830
O201        O  0.71909146  0.45988719  0.57801345    -0.92250
Zr202      Zr  0.71194348  0.55549287  0.46162119     2.64680
O203        O  0.65720648  0.57000410  0.45156269    -0.97200
O204        O  0.72231546  0.58935962  0.41621890    -0.79260
O205        O  0.70802760  0.50269233  0.47858398    -0.82620
O206        O  0.71512523  0.54855262  0.51680047    -2.17330
O207        O  0.79783993  0.50371994  0.58124098    -0.66010
O208        O  0.79624770  0.55715214  0.58079894    -0.50580
C209        C  0.79642138  0.53077856  0.59581243     0.72760
O210        O  0.79914449  0.52494889  0.39940037    -0.58920
O211        O  0.77371036  0.47764689  0.40156975    -0.50900
C212        C  0.78684019  0.50026410  0.38595775     0.74560
O213        O  0.79780606  0.60572617  0.46626984    -0.70310
O214        O  0.79930256  0.61025011  0.51933642    -0.48990
C215        C  0.79812892  0.62285328  0.49185477     0.75940
O216        O  0.79758141  0.42717754  0.50945095    -0.65640
O217        O  0.77815156  0.42570526  0.45949905    -0.52840
C218        C  0.78730446  0.41181792  0.48483251     0.74330
Zr219      Zr  0.80431298  0.48434773  0.52543352     2.77540
O220        O  0.86045050  0.49189860  0.51604908    -0.96390
O221        O  0.83256397  0.44907204  0.56104675    -0.77210
Zr222      Zr  0.80417028  0.54774109  0.45376760     2.70070
O223        O  0.86034440  0.54004073  0.46261978    -0.78460
O224        O  0.83340964  0.57767402  0.41421286    -0.97540
Zr225      Zr  0.75116604  0.47552634  0.45462659     2.21500
Zr226      Zr  0.76613435  0.56627124  0.53299197     2.11130
O227        O  0.81009623  0.53896733  0.50975416    -2.46230
O228        O  0.80249744  0.49287772  0.46923162    -0.78250
O229        O  0.76231900  0.51278520  0.54892155    -0.70450
O230        O  0.75368895  0.52907146  0.43735746    -2.31410
O231        O  0.75336218  0.46700957  0.51036096    -2.27610
O232        O  0.76144171  0.57463220  0.47745533    -0.72210
H233        H  0.69757140  0.55934478  0.52645006     0.79790
H234        H  0.74817025  0.53196495  0.41544853     0.80880
H235        H  0.82960063  0.54776786  0.51751770     0.83100
H236        H  0.74822825  0.44568882  0.51648527     0.80710
H237        H  0.70892398  0.58060777  0.39918341     0.43740
H238        H  0.81730037  0.59095841  0.40368636     0.42710
H239        H  0.86581472  0.52133354  0.44962045     0.42390
H240        H  0.86935304  0.49687143  0.53710445     0.40320
H241        H  0.81583160  0.43873181  0.57369439     0.43460
H242        H  0.71531608  0.43869363  0.56884153     0.38240
H243        H  0.64706694  0.51019219  0.52701611     0.44360
H244        H  0.64579049  0.56433520  0.47119485     0.40770
H245        H  0.86862631  0.47055521  0.51094788     0.45690
H246        H  0.70055007  0.46379915  0.59174482     0.44410
H247        H  0.65663396  0.59338273  0.45073028     0.44550
H248        H  0.84634732  0.59281884  0.42642443     0.44910
O249        O  0.45663740  0.53453766  0.65026921    -0.73960
O250        O  0.44536960  0.49089451  0.67987774    -0.52870
C251        C  0.44194987  0.50843614  0.65555386     0.79770
O252        O  0.60540123  0.54669368  0.66883783    -0.58560
O253        O  0.60765933  0.59104026  0.69933102    -0.51590
C254        C  0.61670915  0.57392058  0.67602325     0.71780
O255        O  0.53928117  0.46570704  0.65875692    -0.73120
O256        O  0.49385651  0.45069130  0.68339001    -0.53680
C257        C  0.51566211  0.44743174  0.66250607     0.77780
O258        O  0.51606793  0.62211369  0.67168856    -0.58260
O259        O  0.56033695  0.62914226  0.70157662    -0.51380
C260        C  0.53990280  0.63821967  0.68122567     0.74380
Zr261      Zr  0.49283120  0.57020472  0.67733666     2.54710
O262        O  0.50087010  0.57864678  0.62093341    -0.78830
O263        O  0.44590515  0.60346750  0.67617137    -0.92250
Zr264      Zr  0.56357644  0.51033388  0.68256781     2.64680
O265        O  0.57603260  0.50361028  0.62665768    -0.97200
O266        O  0.60712382  0.47461233  0.69409460    -0.79260
O267        O  0.50861815  0.51696962  0.67666640    -0.82620
O268        O  0.54753260  0.56349837  0.68257620    -2.17330
O269        O  0.49663061  0.62469258  0.76215533    -0.66010
O270        O  0.54926974  0.62653374  0.76676878    -0.50580
C271        C  0.52281925  0.64059294  0.76295569     0.72760
O272        O  0.53637129  0.44588617  0.77084558    -0.58920
O273        O  0.48716053  0.44373066  0.74978915    -0.50900
C274        C  0.51198724  0.43031300  0.76070678     0.74560
O275        O  0.60924800  0.51955602  0.76978774    -0.70310
O276        O  0.61158685  0.57252418  0.76262552    -0.48990
C277        C  0.62516152  0.54554464  0.76642295     0.75940
O278        O  0.42830903  0.54445331  0.76608450    -0.65640
O279        O  0.43077363  0.49576838  0.74325822    -0.52840
C280        C  0.41509581  0.51894307  0.75532043     0.74330
Zr281      Zr  0.48251056  0.56740336  0.77057816     2.77540
O282        O  0.48521910  0.56502168  0.82811544    -0.96390
O283        O  0.44269047  0.60180992  0.79389738    -0.77210
Zr284      Zr  0.55294287  0.50282637  0.77536720     2.70070
O285        O  0.54405604  0.51318289  0.83133493    -0.78460
O286        O  0.58538646  0.46740401  0.80711352    -0.97540
Zr287      Zr  0.48358989  0.49269006  0.72094080     2.21500
Zr288      Zr  0.56298418  0.58234056  0.73359130     2.11130
O289        O  0.53811521  0.55787951  0.77842838    -2.46230
O290        O  0.49716853  0.51227631  0.77205754    -0.78250
O291        O  0.50789204  0.59072754  0.72685276    -0.70450
O292        O  0.53888330  0.48343369  0.72463115    -2.31410
O293        O  0.46718201  0.54665501  0.72037712    -2.27610
O294        O  0.57787657  0.52848179  0.73241792    -0.72210
H295        H  0.55679135  0.57520528  0.66533656     0.79790
H296        H  0.54474523  0.46178144  0.72058504     0.80880
H297        H  0.54572664  0.56741522  0.79770538     0.83100
H298        H  0.44534587  0.54947494  0.71478412     0.80710
H299        H  0.59920766  0.45343151  0.68813812     0.43740
H300        H  0.59950667  0.45687762  0.79165917     0.42710
H301        H  0.53017976  0.49574427  0.83837305     0.42390
H302        H  0.48921272  0.54252221  0.83307166     0.40320
H303        H  0.43218783  0.61187206  0.77556843     0.43460
H304        H  0.42841098  0.58894539  0.67090161     0.38240
H305        H  0.51524464  0.56135028  0.61441223     0.44360
H306        H  0.57070713  0.52415686  0.61681235     0.40770
H307        H  0.50482069  0.57616651  0.83405415     0.45690
H308        H  0.44854824  0.61664887  0.65699971     0.44410
H309        H  0.59931300  0.50226217  0.62554582     0.44550
H310        H  0.59945491  0.48137919  0.81946029     0.44910
O311        O  0.34459362  0.45542746  0.46863810    -0.73960
O312        O  0.31923981  0.44167183  0.51417553    -0.52870
C313        C  0.34020619  0.43756517  0.49250865     0.79770
O314        O  0.34681288  0.60339776  0.47830916    -0.58560
O315        O  0.31408846  0.61512308  0.43719857    -0.51590
C316        C  0.33952002  0.61873337  0.45324805     0.71780
O317        O  0.35493518  0.52434424  0.54619565    -0.73120
O318        O  0.32417168  0.48299677  0.56155446    -0.53680
C319        C  0.34933516  0.49957315  0.56280933     0.77780
O320        O  0.32843632  0.52791666  0.39426794    -0.58260
O321        O  0.30354507  0.57571687  0.39292048    -0.51380
C322        C  0.32151806  0.55443170  0.38120067     0.74380
Zr323      Zr  0.32053243  0.49874533  0.44273576     2.54710
O324        O  0.37678473  0.49907978  0.43129361    -0.78830
O325        O  0.31192772  0.45767983  0.40327799    -0.92250
Zr326      Zr  0.32851074  0.56092851  0.51112314     2.64680
O327        O  0.38411295  0.57108967  0.52141497    -0.97200
O328        O  0.32074319  0.59860914  0.55403497    -0.79260
O329        O  0.32714843  0.50708187  0.49743880    -0.82620
O330        O  0.32343203  0.55190387  0.45617225    -2.17330
O331        O  0.23379832  0.51198468  0.39748706    -0.66010
O332        O  0.24324363  0.56448893  0.39326020    -0.50580
C333        C  0.23846168  0.53717710  0.38067639     0.72760
O334        O  0.24010287  0.54175729  0.57613080    -0.58920
O335        O  0.25909567  0.49119301  0.57562248    -0.50900
C336        C  0.24923041  0.51609695  0.59018794     0.74560
O337        O  0.24642115  0.61985629  0.50657407    -0.70310
O338        O  0.24495754  0.62173474  0.45335187    -0.48990
C339        C  0.24707114  0.63565018  0.48017798     0.75940
O340        O  0.22956814  0.44024817  0.47077569    -0.65640
O341        O  0.25269470  0.43602591  0.51920599    -0.52840
C342        C  0.23995099  0.42374956  0.49450109     0.74330
Zr343      Zr  0.22787607  0.49705481  0.45411276     2.77540
O344        O  0.17338340  0.51078739  0.46620735    -0.96390
O345        O  0.19403549  0.46461296  0.42085602    -0.77210
Zr346      Zr  0.23634755  0.56305612  0.52150198     2.70070
O347        O  0.17947327  0.56096887  0.51424730    -0.78460
O348        O  0.21202849  0.59693120  0.56135838    -0.97540
Zr349      Zr  0.28249806  0.48486204  0.52343409     2.21500
Zr350      Zr  0.27398010  0.57434499  0.44099769     2.11130
O351        O  0.22804324  0.55277199  0.46625671    -2.46230
O352        O  0.23263646  0.50735910  0.50958153    -0.78250
O353        O  0.27189666  0.51988097  0.42886497    -0.70450
O354        O  0.28515372  0.53957047  0.53746845    -2.31410
O355        O  0.27746493  0.47490882  0.46825423    -2.27610
O356        O  0.28085222  0.58486623  0.49589400    -0.72210
H357        H  0.34123398  0.55963484  0.44427487     0.79790
H358        H  0.29122986  0.54282214  0.55918673     0.80880
H359        H  0.20927633  0.56314148  0.45851077     0.83100
H360        H  0.28065722  0.45303722  0.46273898     0.80710
H361        H  0.33205194  0.58918280  0.57221463     0.43740
H362        H  0.22973671  0.60917169  0.57039053     0.42710
H363        H  0.17227350  0.54476890  0.52952532     0.42390
H364        H  0.16392952  0.51640845  0.44555668     0.40320
H365        H  0.20877063  0.45129947  0.40842716     0.43460
H366        H  0.31420993  0.43749131  0.41489779     0.38240
H367        H  0.38621474  0.51067918  0.44928395     0.44360
H368        H  0.39494689  0.56685826  0.50108024     0.40770
H369        H  0.16331163  0.49054238  0.47214507     0.45690
H370        H  0.33078975  0.45865439  0.38947893     0.44410
H371        H  0.38584297  0.59421437  0.52456524     0.44550
H372        H  0.19960789  0.61266148  0.54929473     0.44910
O373        O  0.84447687  0.59628101  0.99944692    -0.73960
O374        O  0.82090202  0.61241587  0.95439486    -0.52870
C375        C  0.84189247  0.61495500  0.97607085     0.79770
O376        O  0.80403745  0.43905197  0.97989585    -0.58560
O377        O  0.80378886  0.43807201  0.03245970    -0.51590
C378        C  0.81386848  0.42765292  0.00588118     0.71780
O379        O  0.83858418  0.51607470  0.91499904    -0.73120
O380        O  0.82006876  0.56628915  0.90799357    -0.53680
C381        C  0.83763827  0.54268765  0.90081893     0.77780
O382        O  0.80276607  0.53671828  0.07880691    -0.58260
O383        O  0.80242551  0.48449016  0.08072419    -0.51380
C384        C  0.81224386  0.51110774  0.09127527     0.74380
Zr385      Zr  0.82196304  0.55421682  0.02839342     2.54710
O386        O  0.87550435  0.53848933  0.04207204    -0.78830
O387        O  0.82903689  0.60253395  0.05982513    -0.92250
Zr388      Zr  0.82026101  0.49054923  0.96180166     2.64680
O389        O  0.87678535  0.48596809  0.97102302    -0.97200
O390        O  0.83360895  0.45116278  0.92194166    -0.79260
O391        O  0.82469094  0.54476065  0.97351086    -0.82620
O392        O  0.81960190  0.49974796  0.01691303    -2.17330
O393        O  0.73539485  0.54646913  0.08029830    -0.66010
O394        O  0.73471266  0.49310510  0.07946047    -0.50580
C395        C  0.73593769  0.51921079  0.09480481     0.72760
O396        O  0.73238314  0.51977008  0.89880666    -0.58920
O397        O  0.75495459  0.56857626  0.89869976    -0.50900
C398        C  0.74357112  0.54440712  0.88425921     0.74560
O399        O  0.73114708  0.44243418  0.96842164    -0.70310
O400        O  0.73669272  0.43708801  0.02152996    -0.48990
C401        C  0.73303254  0.42513711  0.99379694     0.75940
O402        O  0.73701450  0.62225677  0.00639663    -0.65640
O403        O  0.75642186  0.62259236  0.95618118    -0.52840
C404        C  0.74771335  0.63705884  0.98153823     0.74330
Zr405      Zr  0.72977148  0.56542816  0.02352651     2.77540
O406        O  0.67349691  0.55898459  0.01456117    -0.96390
O407        O  0.70374667  0.60215445  0.05951233    -0.77210
Zr408      Zr  0.72747127  0.50012998  0.95463390     2.70070
O409        O  0.67193369  0.51056790  0.96487101    -0.78460
O410        O  0.69643513  0.46971567  0.91694060    -0.97540
Zr411      Zr  0.78137050  0.57135467  0.94941852     2.21500
Zr412      Zr  0.76811911  0.48295579  0.03441485     2.11130
O413        O  0.72394791  0.51015913  0.01064018    -2.46230
O414        O  0.73018394  0.55549583  0.96729357    -0.78250
O415        O  0.77228035  0.53778595  0.04589346    -0.70450
O416        O  0.77814164  0.51646794  0.93657194    -2.31410
O417        O  0.78026879  0.58139194  0.00470591    -2.27610
O418        O  0.77021853  0.47405887  0.97886623    -0.72210
H419        H  0.83630485  0.48866677  0.02768610     0.79790
H420        H  0.78213898  0.51157341  0.91468956     0.80880
H421        H  0.70445981  0.50195447  0.01914431     0.83100
H422        H  0.78594729  0.60280427  0.00958967     0.80710
H423        H  0.81436934  0.44942406  0.90883089     0.43740
H424        H  0.71175609  0.45518948  0.90679862     0.42710
H425        H  0.66632253  0.52751511  0.94973331     0.42390
H426        H  0.66459691  0.55438089  0.03573441     0.40320
H427        H  0.72115652  0.61199984  0.07155941     0.43460
H428        H  0.81648579  0.61951354  0.04980948     0.38240
H429        H  0.88836446  0.54515939  0.02368157     0.44360
H430        H  0.88025198  0.49021954  0.99373425     0.40770
H431        H  0.66579353  0.58048276  0.00942794     0.45690
H432        H  0.85125566  0.60911594  0.05702601     0.44410
H433        H  0.88185287  0.46335833  0.96791832     0.44550
H434        H  0.68287690  0.45582659  0.92998616     0.44910
O435        O  0.01584652  0.46516054  0.81319335    -0.73960
O436        O  0.96944479  0.45999397  0.78662992    -0.52870
C437        C  0.98827021  0.45325178  0.80918120     0.79770
O438        O  0.02830194  0.62230015  0.80086530    -0.58560
O439        O  0.07520723  0.62190802  0.77447441    -0.51590
C440        C  0.05516337  0.63415191  0.79365507     0.71780
O441        O  0.95059197  0.55299010  0.81374665    -0.73120
O442        O  0.93297545  0.50997684  0.78639553    -0.53680
C443        C  0.93127302  0.53048435  0.80874357     0.77780
O444        O  0.10553700  0.51608539  0.77448608    -0.58260
O445        O  0.11205187  0.56809859  0.77660909    -0.51380
C446        C  0.11914190  0.54023296  0.78590654     0.74380
Zr447      Zr  0.05279478  0.50306595  0.79099007     2.54710
O448        O  0.06410101  0.51553282  0.84600755    -0.78830
O449        O  0.08355606  0.45580974  0.80254143    -0.92250
Zr450      Zr  0.99677742  0.57593705  0.79233635     2.64680
O451        O  0.00239887  0.57812202  0.84965036    -0.97200
O452        O  0.95920740  0.61949584  0.79319666    -0.79260
O453        O  0.00032782  0.52045623  0.79319340    -0.82620
O454        O  0.04924772  0.55887478  0.79055833    -2.17330
O455        O  0.10585836  0.50987477  0.70366383    -0.66010
O456        O  0.11407948  0.56241337  0.70844672    -0.50580
C457        C  0.12461110  0.53400785  0.70628807     0.72760
O458        O  0.93019831  0.56055371  0.70345775    -0.58920
O459        O  0.92582391  0.50934822  0.71903612    -0.50900
C460        C  0.91353427  0.53599389  0.71142030     0.74560
O461        O  0.00825357  0.62894004  0.70956630    -0.70310
O462        O  0.06142616  0.62743404  0.71405392    -0.48990
C463        C  0.03528978  0.64295113  0.71304981     0.75940
O464        O  0.02425805  0.44663386  0.69959585    -0.65640
O465        O  0.97542331  0.44852040  0.72219592    -0.52840
C466        C  0.99884081  0.43326106  0.71007331     0.74330
Zr467      Zr  0.04777418  0.50033948  0.69704888     2.77540
O468        O  0.04190259  0.50724533  0.64011155    -0.96390
O469        O  0.07938349  0.46185220  0.66812451    -0.77210
Zr470      Zr  0.98792202  0.57420985  0.69917611     2.70070
O471        O  0.99704471  0.56932380  0.64251539    -0.78460
O472        O  0.95443252  0.61190970  0.67139217    -0.97540
Zr473      Zr  0.97405815  0.50038407  0.74766361     2.21500
Zr474      Zr  0.06887992  0.57673133  0.74028428     2.11130
O475        O  0.04207074  0.55700450  0.69416577    -2.46230
O476        O  0.99368220  0.51767042  0.69758962    -0.78250
O477        O  0.07297518  0.52067145  0.74196586    -0.70450
O478        O  0.96829857  0.55652218  0.74873754    -2.31410
O479        O  0.02726428  0.48196653  0.74669878    -2.27610
O480        O  0.01562157  0.59317640  0.74356631    -0.72210
H481        H  0.06059435  0.56790202  0.80805990     0.79790
H482        H  0.94717543  0.56337927  0.75367169     0.80880
H483        H  0.05176892  0.56557345  0.67535752     0.83100
H484        H  0.02957605  0.45978712  0.75129547     0.80710
H485        H  0.96158942  0.62965477  0.77222612     0.43740
H486        H  0.94527895  0.62531063  0.68830581     0.42710
H487        H  0.97833761  0.55785199  0.63457637     0.42390
H488        H  0.01903799  0.51038382  0.63673676     0.40320
H489        H  0.08888157  0.44834273  0.68470931     0.43460
H490        H  0.07261536  0.43857037  0.79116540     0.38240
H491        H  0.04309200  0.51835802  0.85586996     0.44360
H492        H  0.02492942  0.58288202  0.85335850     0.40770
H493        H  0.05165313  0.52784707  0.63500254     0.45690
H494        H  0.07954241  0.45146131  0.82521000     0.44410
H495        H  0.99114189  0.59766294  0.85596588     0.44550
H496        H  0.96912177  0.62605101  0.65995261     0.44910
O497        O  0.18351269  0.44791194  0.00273643    -0.73960
O498        O  0.20157492  0.43844329  0.95303451    -0.52870
C499        C  0.18498147  0.43119894  0.97753920     0.79770
O500        O  0.23379359  0.61152853  0.97587632    -0.58560
O501        O  0.23462491  0.61393135  0.02838468    -0.51590
C502        C  0.22614197  0.62516584  0.00153064     0.71780
O503        O  0.18765258  0.53979622  0.91408829    -0.73120
O504        O  0.20244492  0.48906688  0.90408251    -0.53680
C505        C  0.18687442  0.51435946  0.89790123     0.77780
O506        O  0.22219108  0.51380144  0.07403787    -0.58260
O507        O  0.22590636  0.56574122  0.07787150    -0.51380
C508        C  0.21344522  0.53964842  0.08654755     0.74380
Zr509      Zr  0.20131257  0.49746488  0.02380140     2.54710
O510        O  0.14809427  0.51823821  0.01806831    -0.78830
O511        O  0.17396682  0.47024509  0.06660033    -0.92250
Zr512      Zr  0.20838414  0.56310289  0.96082830     2.64680
O513        O  0.15467045  0.57876834  0.97508446    -0.97200
O514        O  0.19624284  0.60292772  0.92107696    -0.79260
O515        O  0.19899811  0.50865350  0.96938859    -0.82620
O516        O  0.20907142  0.55215605  0.01552597    -2.17330
O517        O  0.29110834  0.49489273  0.07491596    -0.66010
O518        O  0.29133092  0.54829037  0.07947693    -0.50580
C519        C  0.29162345  0.52051812  0.09182308     0.72760
O520        O  0.29483679  0.52919137  0.89631601    -0.58920
O521        O  0.26673136  0.48328563  0.89379556    -0.50900
C522        C  0.28164717  0.50634967  0.88071001     0.74560
O523        O  0.30070394  0.60413778  0.96933384    -0.70310
O524        O  0.29953918  0.60548530  0.02274409    -0.48990
C525        C  0.30104135  0.61963913  0.99593083     0.75940
O526        O  0.28600359  0.42564706  0.99687387    -0.65640
O527        O  0.26383745  0.42730176  0.94773422    -0.52840
C528        C  0.27449450  0.41218826  0.97185446     0.74330
Zr529      Zr  0.29399951  0.48025890  0.01767670     2.77540
O530        O  0.35062883  0.48418851  0.00923286    -0.96390
O531        O  0.31706001  0.43967974  0.05135947    -0.77210
Zr532      Zr  0.30051077  0.54717973  0.95222210     2.70070
O533        O  0.35544548  0.53312346  0.96105159    -0.78460
O534        O  0.33140238  0.57808368  0.91472664    -0.97540
Zr535      Zr  0.24088880  0.47972475  0.94510225     2.21500
Zr536      Zr  0.26202449  0.56384705  0.03302297     2.11130
O537        O  0.30418718  0.53508821  0.00763508    -2.46230
O538        O  0.29340227  0.49177849  0.96214279    -0.78250
O539        O  0.25276873  0.50908204  0.04159805    -0.70450
O540        O  0.24849033  0.53476587  0.93447512    -2.31410
O541        O  0.24221132  0.46769574  0.00022861    -2.27610
O542        O  0.25972156  0.57456088  0.97795659    -0.72210
H543        H  0.19378730  0.56465190  0.02687675     0.79790
H544        H  0.24501268  0.54049567  0.91271758     0.80880
H545        H  0.32425777  0.54150869  0.01624107     0.83100
H546        H  0.23768017  0.44611885  0.00561737     0.80710
H547        H  0.21573376  0.60456073  0.90825573     0.43740
H548        H  0.31650469  0.59409280  0.90641962     0.42710
H549        H  0.35993773  0.51665857  0.94499864     0.42390
H550        H  0.35958283  0.48667261  0.03070448     0.40320
H551        H  0.29882808  0.42974857  0.06210381     0.43460
H552        H  0.18216801  0.44832337  0.06617132     0.38240
H553        H  0.13719452  0.50252809  0.00462336     0.44360
H554        H  0.15448593  0.58354880  0.99795104     0.40770
H555        H  0.35715539  0.46273151  0.00249083     0.45690
H556        H  0.15178077  0.46853985  0.05962751     0.44410
H557        H  0.15147729  0.59956992  0.96485211     0.44550
H558        H  0.34641890  0.59028123  0.92781025     0.44910
O559        O  0.01170717  0.59886776  0.16560917    -0.73960
O560        O  0.96494659  0.60006547  0.19230672    -0.52870
C561        C  0.98549367  0.61194996  0.17344457     0.79770
O562        O  0.01068901  0.42844143  0.17659185    -0.58560
O563        O  0.06342359  0.43350176  0.18018105    -0.51590
C564        C  0.03884199  0.42034367  0.16883982     0.71780
O565        O  0.93161085  0.49671883  0.16738280    -0.73120
O566        O  0.92242143  0.54313036  0.19375552    -0.53680
C567        C  0.91416160  0.51992952  0.17588384     0.77780
O568        O  0.08999012  0.53116574  0.15743360    -0.58260
O569        O  0.10484205  0.48522240  0.18130160    -0.51380
C570        C  0.10863049  0.50792685  0.16121803     0.74380
Zr571      Zr  0.04142632  0.55098403  0.17522658     2.54710
O572        O  0.03545488  0.55102392  0.11795516    -0.78830
O573        O  0.07974627  0.59376217  0.17283719    -0.92250
Zr574      Zr  0.98511949  0.47992445  0.17461608     2.64680
O575        O  0.99487457  0.48832449  0.11835123    -0.97200
O576        O  0.94855063  0.43938579  0.15684730    -0.79260
O577        O  0.98828187  0.53579283  0.17569414    -0.82620
O578        O  0.03793442  0.49545447  0.17248449    -2.17330
O579        O  0.10437708  0.53543371  0.25955082    -0.66010
O580        O  0.10977202  0.48327452  0.24872326    -0.50580
C581        C  0.12162577  0.51062099  0.25413922     0.72760
O582        O  0.92716738  0.49236148  0.27037146    -0.58920
O583        O  0.92406726  0.54464828  0.25962513    -0.50900
C584        C  0.91090180  0.51778275  0.26423439     0.74560
O585        O  0.00300236  0.42295885  0.25590949    -0.70310
O586        O  0.05493644  0.42197138  0.24224082    -0.48990
C587        C  0.02856057  0.40796807  0.24815672     0.75940
O588        O  0.02593103  0.60220118  0.27257573    -0.65640
O589        O  0.97570900  0.60396261  0.25337814    -0.52840
C590        C  0.00071777  0.61744896  0.26430333     0.74330
Zr591      Zr  0.04738643  0.54756477  0.26951119     2.77540
O592        O  0.04519370  0.53762431  0.32630012    -0.96390
O593        O  0.08238449  0.58408031  0.29672190    -0.77210
Zr594      Zr  0.98506221  0.47736349  0.26919535     2.70070
O595        O  0.99842165  0.47982336  0.32509275    -0.78460
O596        O  0.95222667  0.43929442  0.29725063    -0.97540
Zr597      Zr  0.96876771  0.55371882  0.22556688     2.21500
Zr598      Zr  0.06203974  0.47461950  0.21921858     2.11130
O599        O  0.04023473  0.49136100  0.26928217    -2.46230
O600        O  0.99254545  0.53333150  0.27280361    -0.78250
O601        O  0.06790698  0.53049025  0.22027938    -0.70450
O602        O  0.96269618  0.49772815  0.22243504    -2.31410
O603        O  0.02271936  0.56867755  0.22359494    -2.27610
O604        O  0.00794971  0.46012692  0.22098949    -0.72210
H605        H  0.04773543  0.48741628  0.15347855     0.79790
H606        H  0.94149471  0.49019483  0.22053230     0.80880
H607        H  0.05132962  0.48116759  0.28640941     0.83100
H608        H  0.02642009  0.59087034  0.22058490     0.80710
H609        H  0.94144016  0.42890956  0.17654865     0.43740
H610        H  0.94240421  0.42640533  0.28038442     0.42710
H611        H  0.98028348  0.49079717  0.33501385     0.42390
H612        H  0.02246982  0.53728696  0.33161476     0.40320
H613        H  0.09253218  0.59641654  0.27961003     0.43460
H614        H  0.07342589  0.60859578  0.18983876     0.38240
H615        H  0.01285607  0.55566018  0.11438417     0.44360
H616        H  0.01223784  0.47376223  0.11257932     0.40770
H617        H  0.05257995  0.51565832  0.32941493     0.45690
H618        H  0.07494280  0.60510866  0.15293293     0.44410
H619        H  0.97607825  0.47953372  0.10767963     0.44550
H620        H  0.96715142  0.42472486  0.30782524     0.44910
O621        O  0.94073020  0.35521618  0.99892321    -0.73960
O622        O  0.92227349  0.33286953  0.95368344    -0.52870
C623        C  0.92062650  0.35271494  0.97675169     0.79770
O624        O  0.09724987  0.31233860  0.95784829    -0.58560
O625        O  0.10246492  0.30580976  0.01011382    -0.51590
C626        C  0.11118496  0.31824871  0.98383635     0.71780
O627        O  0.00925411  0.35826566  0.91166247    -0.73120
O628        O  0.96140566  0.33530114  0.90315315    -0.53680
C629        C  0.98185086  0.35702555  0.89875521     0.77780
O630        O  0.01178929  0.31421574  0.06778160    -0.58260
O631        O  0.06358206  0.30865838  0.06303803    -0.51380
C632        C  0.03966841  0.32190808  0.07590727     0.74380
Zr633      Zr  0.98698508  0.33112498  0.01916418     2.54710
O634        O  0.00739414  0.38507904  0.01991537    -0.78830
O635        O  0.94793801  0.34182111  0.06059950    -0.92250
Zr636      Zr  0.04418276  0.33000044  0.94727135     2.64680
O637        O  0.06263201  0.38329957  0.95908690    -0.97200
O638        O  0.07238300  0.33741127  0.89760167    -0.79260
O639        O  0.99137449  0.33477032  0.96387474    -0.82620
O640        O  0.03992759  0.32680238  0.00307739    -2.17330
O641        O  0.99232442  0.24191739  0.06647371    -0.66010
O642        O  0.04573407  0.24422455  0.06591832    -0.50580
C643        C  0.01932199  0.24279240  0.08087979     0.72760
O644        O  0.01043140  0.24439943  0.88500651    -0.58920
O645        O  0.96365400  0.27089534  0.88726572    -0.50900
C646        C  0.98653327  0.25804654  0.87168547     0.74560
O647        O  0.09114129  0.24064907  0.94960149    -0.70310
O648        O  0.09661551  0.23787511  0.00247650    -0.48990
C649        C  0.10872795  0.23934025  0.97475665     0.75940
O650        O  0.91518800  0.24623083  0.99742100    -0.65640
O651        O  0.91058174  0.26874068  0.94865931    -0.52840
C652        C  0.89845569  0.25772156  0.97431861     0.74330
Zr653      Zr  0.97244881  0.23830021  0.01099594     2.77540
O654        O  0.98328130  0.18258729  0.00095613    -0.96390
O655        O  0.93703973  0.21135121  0.04749937    -0.77210
Zr656      Zr  0.03282347  0.23724832  0.93864651     2.70070
O657        O  0.02249950  0.18129340  0.94702056    -0.78460
O658        O  0.06111574  0.20700768  0.89851814    -0.97540
Zr659      Zr  0.96186743  0.29303914  0.94065979     2.21500
Zr660      Zr  0.05569142  0.27408893  0.01792595     2.11130
O661        O  0.02641458  0.23139778  0.99474118    -2.46230
O662        O  0.97824520  0.24064628  0.95447744    -0.78250
O663        O  0.00217240  0.27976415  0.03304705    -0.70450
O664        O  0.01556043  0.28912901  0.92358295    -2.31410
O665        O  0.95646107  0.29033122  0.99659617    -2.27610
O666        O  0.06068218  0.27892433  0.96212549    -0.72210
H667        H  0.05269667  0.34261245  0.01331332     0.79790
H668        H  0.01872391  0.29488695  0.90176499     0.80880
H669        H  0.03496388  0.21152492  0.00203009     0.83100
H670        H  0.93549083  0.29551071  0.00369268     0.80710
H671        H  0.07751106  0.31571178  0.89043064     0.43740
H672        H  0.07548933  0.22246015  0.88846182     0.42710
H673        H  0.00453814  0.17654312  0.93288337     0.42390
H674        H  0.98620071  0.17264956  0.02180228     0.40320
H675        H  0.92743072  0.22856494  0.06018731     0.43460
H676        H  0.92968097  0.32824177  0.05540396     0.38240
H677        H  0.00080500  0.39417162  0.99937597     0.44360
H678        H  0.06862985  0.38334761  0.98167018     0.40770
H679        H  0.96278533  0.17378995  0.99250308     0.45690
H680        H  0.94032166  0.36371452  0.05725745     0.44410
H681        H  0.08290630  0.38509035  0.94758229     0.44550
H682        H  0.07521555  0.19266932  0.91045829     0.44910
O683        O  0.94218830  0.71159246  0.96715908    -0.73960
O684        O  0.93238519  0.73231100  0.01635369    -0.52870
C685        C  0.92513236  0.71603795  0.99172174     0.79770
O686        O  0.10008549  0.70168860  0.00680892    -0.58560
O687        O  0.11565029  0.72559041  0.96159465    -0.51590
C688        C  0.11987487  0.70618029  0.98474433     0.71780
O689        O  0.01656242  0.69741440  0.06944705    -0.73120
O690        O  0.97108632  0.72608940  0.07238232    -0.53680
C691        C  0.99036106  0.70521845  0.08275656     0.77780
O692        O  0.02593427  0.71441775  0.90271011    -0.58260
O693        O  0.07602204  0.73342319  0.90627337    -0.51380
C694        C  0.05395240  0.71876950  0.89186362     0.74380
Zr695      Zr  0.99463027  0.72266342  0.95015087     2.54710
O696        O  0.99437966  0.66515853  0.94786534    -0.78830
O697        O  0.96088749  0.72671882  0.90377021    -0.92250
Zr698      Zr  0.04785264  0.71064318  0.02288480     2.64680
O699        O  0.04026078  0.65519881  0.00954399    -0.97200
O700        O  0.08021848  0.69352306  0.06719193    -0.79260
O701        O  0.99581324  0.71583098  0.00585013    -0.82620
O702        O  0.04664784  0.71580626  0.96732264    -2.17330
O703        O  0.01657937  0.80974903  0.90546779    -0.66010
O704        O  0.06757697  0.79302428  0.90385509    -0.50580
C705        C  0.04202451  0.80221986  0.89003920     0.72760
O706        O  0.03515661  0.80121937  0.08683524    -0.58920
O707        O  0.98436294  0.78395845  0.08386869    -0.50900
C708        C  0.00890027  0.79218005  0.09985371     0.74560
O709        O  0.11543698  0.79222541  0.01997556    -0.70310
O710        O  0.11955046  0.79280067  0.96688172    -0.48990
C711        C  0.13223421  0.79090302  0.99423881     0.75940
O712        O  0.93943739  0.81677530  0.97487899    -0.65640
O713        O  0.93579232  0.80100772  0.02570699    -0.52840
C714        C  0.92282665  0.80839256  0.99945105     0.74330
Zr715      Zr  0.99773420  0.81618553  0.96109812     2.77540
O716        O  0.01320660  0.87010072  0.97382235    -0.96390
O717        O  0.96872635  0.85105248  0.92568706    -0.77210
Zr718      Zr  0.05852067  0.80415318  0.03256458     2.70070
O719        O  0.05845042  0.86122043  0.02523483    -0.78460
O720        O  0.09184292  0.82614971  0.07397681    -0.97540
Zr721      Zr  0.97805981  0.76354825  0.03021733     2.21500
Zr722      Zr  0.07277824  0.76396145  0.95380757     2.11130
O723        O  0.05245364  0.81203814  0.97665922    -2.46230
O724        O  0.00429941  0.81181439  0.01724015    -0.78250
O725        O  0.01965557  0.77013417  0.93800025    -0.70450
O726        O  0.03117151  0.75711636  0.04655373    -2.31410
O727        O  0.97283613  0.76800833  0.97415075    -2.27610
O728        O  0.07696946  0.75672655  0.00947775    -0.72210
H729        H  0.05629835  0.69771298  0.95722950     0.79790
H730        H  0.03417107  0.75127846  0.06830668     0.80880
H731        H  0.06444550  0.83001236  0.96935636     0.83100
H732        H  0.95151969  0.76692131  0.96659355     0.80710
H733        H  0.08827486  0.71340746  0.07650102     0.43740
H734        H  0.10362364  0.80781284  0.08249892     0.42710
H735        H  0.04261090  0.86907654  0.04059315     0.42390
H736        H  0.02036849  0.87922017  0.95347550     0.40320
H737        H  0.95558018  0.83668956  0.91276524     0.43460
H738        H  0.94471248  0.74263364  0.90951662     0.38240
H739        H  0.98380567  0.65852087  0.96767959     0.44360
H740        H  0.05815739  0.64989302  0.99542339     0.40770
H741        H  0.99318173  0.88118646  0.97862304     0.45690
H742        H  0.94934112  0.70641609  0.90300935     0.44410
H743        H  0.04485936  0.64374008  0.02943271     0.44550
H744        H  0.10792874  0.83884358  0.06272652     0.44910
O745        O  0.61489285  0.81763506  0.99926535    -0.73960
O746        O  0.61700155  0.82073723  0.94659347    -0.52870
C747        C  0.62660450  0.82900815  0.97399791     0.79770
O748        O  0.54229999  0.73169929  0.07130626    -0.58560
O749        O  0.49121530  0.74740658  0.07169934    -0.51590
C750        C  0.51658357  0.73951081  0.08623798     0.71780
O751        O  0.61820858  0.74626692  0.00198394    -0.73120
O752        O  0.62254251  0.75619732  0.94952102    -0.53680
C753        C  0.63503589  0.75249945  0.97699157     0.77780
O754        O  0.54169750  0.83382767  0.07161527    -0.58260
O755        O  0.49497819  0.80807077  0.07760340    -0.51380
C756        C  0.51822014  0.82427010  0.08818672     0.74380
Zr757      Zr  0.56296303  0.82913443  0.01887917     2.54710
O758        O  0.59864677  0.84634248  0.06061748    -0.78830
O759        O  0.55363642  0.88534529  0.00879908    -0.92250
Zr760      Zr  0.56158934  0.73418000  0.01481093     2.64680
O761        O  0.59733192  0.70175840  0.04619347    -0.97200
O762        O  0.55566350  0.67941111  0.99817646    -0.79260
O763        O  0.58270786  0.78212530  0.99600664    -0.82620
O764        O  0.54209333  0.78141291  0.03764897    -2.17330
O765        O  0.46158812  0.85715570  0.98954767    -0.66010
O766        O  0.44914757  0.82513227  0.03115909    -0.50580
C767        C  0.44603714  0.85045582  0.01476064     0.72760
O768        O  0.51084885  0.75322048  0.89235616    -0.58920
O769        O  0.56386424  0.75896479  0.89057876    -0.50900
C770        C  0.53693230  0.75751198  0.87676875     0.74560
O771        O  0.43866738  0.74102289  0.96730420    -0.70310
O772        O  0.43658055  0.75827318  0.01833862    -0.48990
C773        C  0.42322397  0.74857941  0.99285469     0.75940
O774        O  0.52675708  0.84832101  0.90553462    -0.65640
O775        O  0.57311255  0.82189278  0.89775382    -0.52840
C776        C  0.55212285  0.84230455  0.89006982     0.74330
Zr777      Zr  0.49939542  0.83406002  0.95356179     2.77540
O778        O  0.45442306  0.83030073  0.91800715    -0.96390
O779        O  0.49752717  0.89096473  0.94514020    -0.77210
Zr780      Zr  0.49474083  0.74087737  0.94809052     2.70070
O781        O  0.45894580  0.71647467  0.91033533    -0.78460
O782        O  0.50523469  0.68431363  0.94995885    -0.97540
Zr783      Zr  0.57345548  0.78466646  0.94080353     2.21500
Zr784      Zr  0.48718133  0.78286823  0.02704408     2.11130
O785        O  0.47500949  0.78794508  0.97211907    -2.46230
O786        O  0.51865649  0.78779111  0.92975455    -0.78250
O787        O  0.50903312  0.83114377  0.00853892    -0.70450
O788        O  0.55041519  0.73608649  0.95899981    -2.31410
O789        O  0.55399028  0.83286266  0.96389789    -2.27610
O790        O  0.50603220  0.73506501  0.00347381    -0.72210
H791        H  0.54855638  0.78181217  0.05934201     0.79790
H792        H  0.55965077  0.71837680  0.94788869     0.80880
H793        H  0.45314826  0.79286834  0.96836572     0.83100
H794        H  0.56431490  0.85116685  0.95506349     0.80710
H795        H  0.57594952  0.67409207  0.98781396     0.43740
H796        H  0.48452246  0.67457966  0.95456381     0.42710
H797        H  0.44737554  0.73441300  0.90074262     0.42390
H798        H  0.43971411  0.84694665  0.92540632     0.40320
H799        H  0.50788851  0.90011017  0.96399082     0.43460
H800        H  0.56763077  0.89193649  0.99126609     0.38240
H801        H  0.61201425  0.82764185  0.06498890     0.44360
H802        H  0.60521796  0.71610110  0.06291159     0.40770
H803        H  0.46235468  0.83816432  0.89742228     0.45690
H804        H  0.56152494  0.89656629  0.02774637     0.44410
H805        H  0.58368921  0.68651101  0.05750812     0.44550
H806        H  0.50986855  0.67835144  0.92777155     0.44910
O807        O  0.59171332  0.05291503  0.81988509    -0.73960
O808        O  0.60854239  0.00821747  0.79542316    -0.52870
C809        C  0.61116444  0.03016218  0.81642004     0.79770
O810        O  0.43574776  0.02610786  0.79742921    -0.58560
O811        O  0.42976325  0.07347677  0.77237349    -0.51590
C812        C  0.41959834  0.05042299  0.78919671     0.71780
O813        O  0.51758794  0.95869853  0.81305522    -0.73120
O814        O  0.56753063  0.95671118  0.79278940    -0.53680
C815        C  0.54504478  0.94591293  0.80968905     0.77780
O816        O  0.51859328  0.12614789  0.79832331    -0.58260
O817        O  0.47252637  0.12594331  0.77085556    -0.51380
C818        C  0.49286845  0.13906490  0.78888206     0.74380
Zr819      Zr  0.54682093  0.07662488  0.79622219     2.54710
O820        O  0.53619667  0.08336750  0.85244725    -0.78830
O821        O  0.58639328  0.11827706  0.79834684    -0.92250
Zr822      Zr  0.48889073  0.00615637  0.79604977     2.64680
O823        O  0.48768750  0.01694161  0.85262715    -0.97200
O824        O  0.45223890  0.96271311  0.80407460    -0.79260
O825        O  0.54187314  0.02118535  0.80019495    -0.82620
O826        O  0.49376753  0.06175602  0.79315962    -2.17330
O827        O  0.54046882  0.12589980  0.70940093    -0.66010
O828        O  0.48719876  0.12610519  0.71198728    -0.50580
C829        C  0.51374745  0.14077993  0.71128401     0.72760
O830        O  0.51785960  0.94584922  0.70476718    -0.58920
O831        O  0.56438277  0.94566291  0.73178877    -0.50900
C832        C  0.54168333  0.93135871  0.71732319     0.74560
O833        O  0.43789633  0.01154065  0.70771896    -0.70310
O834        O  0.43264645  0.06452633  0.70871306    -0.48990
C835        C  0.42045889  0.03680562  0.70858445     0.75940
O836        O  0.61571473  0.05466155  0.70936706    -0.65640
O837        O  0.61708851  0.00418423  0.72719909    -0.52840
C838        C  0.63094882  0.02987878  0.71916249     0.74330
Zr839      Zr  0.55898030  0.07020126  0.70290889     2.77540
O840        O  0.55190013  0.06090136  0.64651221    -0.96390
O841        O  0.59392955  0.10645467  0.67509873    -0.77210
Zr842      Zr  0.49576558  0.00012333  0.70165034     2.70070
O843        O  0.50329735  0.01092047  0.64557133    -0.78460
O844        O  0.46608601  0.96081014  0.67196129    -0.97540
Zr845      Zr  0.56806221  0.99857577  0.75550877     2.21500
Zr846      Zr  0.47731340  0.07770202  0.74146290     2.11130
O847        O  0.50429368  0.05591104  0.69655662    -2.46230
O848        O  0.55075813  0.01412595  0.70401853    -0.78250
O849        O  0.53083686  0.09207985  0.74585030    -0.70450
O850        O  0.51406375  0.98352688  0.75221858    -2.31410
O851        O  0.57589579  0.05430505  0.75411869    -2.27610
O852        O  0.47011388  0.02226650  0.74587965    -0.72210
H853        H  0.48162373  0.07202102  0.80958633     0.79790
H854        H  0.51018519  0.96146232  0.75601533     0.80880
H855        H  0.49555877  0.06424677  0.67718212     0.83100
H856        H  0.59717876  0.06033252  0.75920194     0.80710
H857        H  0.44962685  0.95336894  0.78275753     0.43740
H858        H  0.45230796  0.95057964  0.68787081     0.42710
H859        H  0.52080647  0.99676534  0.63918655     0.42390
H860        H  0.54673665  0.08190954  0.63757573     0.40320
H861        H  0.60461441  0.11847827  0.69207273     0.43460
H862        H  0.60656022  0.10795215  0.79255316     0.38240
H863        H  0.53823995  0.06186652  0.86145459     0.44360
H864        H  0.46983463  0.03177670  0.85553823     0.40770
H865        H  0.57330079  0.05607723  0.63843265     0.45690
H866        H  0.58853722  0.12320496  0.82114228     0.44410
H867        H  0.48034943  0.99692731  0.86225603     0.44550
H868        H  0.45147147  0.97311532  0.65848066     0.44910
O869        O  0.52612534  0.30864923  0.90148306    -0.73960
O870        O  0.47319918  0.30748854  0.89707624    -0.52870
C871        C  0.50072989  0.30855114  0.88442963     0.79770
O872        O  0.57655675  0.19508149  0.96963076    -0.58560
O873        O  0.58411746  0.21302318  0.01978749    -0.51590
C874        C  0.59177511  0.19594207  0.99574370     0.71780
O875        O  0.50765086  0.21922025  0.89295439    -0.73120
O876        O  0.46167258  0.24688687  0.88948269    -0.53680
C877        C  0.48353589  0.22952139  0.87781047     0.77780
O878        O  0.59291189  0.30569430  0.98049782    -0.58260
O879        O  0.59342581  0.27620867  0.02556650    -0.51380
C880        C  0.60751751  0.29200476  0.00368437     0.74380
Zr881      Zr  0.53841387  0.31055517  0.95931295     2.54710
O882        O  0.57660340  0.34162875  0.92957871    -0.78830
O883        O  0.52791739  0.36583066  0.97161593    -0.92250
Zr884      Zr  0.53069928  0.21730395  0.94492125     2.64680
O885        O  0.57236392  0.21469594  0.90524398    -0.97200
O886        O  0.52062738  0.16111133  0.93763620    -0.79260
O887        O  0.51502815  0.26874183  0.93112906    -0.82620
O888        O  0.55533078  0.25857809  0.97270130    -2.17330
O889        O  0.48781184  0.29682302  0.07920064    -0.66010
O890        O  0.53739145  0.27631443  0.07805494    -0.50580
C891        C  0.51278308  0.28576018  0.09313565     0.72760
O892        O  0.41211820  0.22258250  0.98544606    -0.58920
O893        O  0.41751397  0.23613078  0.93408894    -0.50900
C894        C  0.40364418  0.22135275  0.95640669     0.74560
O895        O  0.48313003  0.19280046  0.05777378    -0.70310
O896        O  0.53199652  0.21289483  0.06785072    -0.48990
C897        C  0.50793970  0.19586621  0.07490622     0.75940
O898        O  0.41253929  0.29837193  0.00571214    -0.65640
O899        O  0.41233153  0.30110950  0.95235931    -0.52840
C900        C  0.39759135  0.29872788  0.97881690     0.74330
Zr901      Zr  0.46897088  0.30484690  0.02349335     2.77540
O902        O  0.43262358  0.33010752  0.06047082    -0.96390
O903        O  0.47643634  0.36172231  0.01913983    -0.77210
Zr904      Zr  0.46379961  0.21181147  0.00715126     2.70070
O905        O  0.42273870  0.18952572  0.04065174    -0.78460
O906        O  0.46424367  0.15844276  0.98560349    -0.97540
Zr907      Zr  0.46016849  0.27218813  0.94028301     2.21500
Zr908      Zr  0.54181543  0.25136249  0.02685056     2.11130
O909        O  0.48632212  0.25313280  0.03692489    -2.46230
O910        O  0.44678686  0.26321325  0.99408076    -0.78250
O911        O  0.52500249  0.30387579  0.01407511    -0.70450
O912        O  0.47613642  0.21931007  0.95328706    -2.31410
O913        O  0.48276846  0.31513059  0.96924657    -2.27610
O914        O  0.51872358  0.20834440  0.99875949    -0.72210
H915        H  0.57732558  0.25499381  0.96825653     0.79790
H916        H  0.46597047  0.20356811  0.94029511     0.80880
H917        H  0.48034406  0.24838255  0.05834106     0.83100
H918        H  0.47431452  0.33502406  0.96188474     0.80710
H919        H  0.50586265  0.15995553  0.91956477     0.43740
H920        H  0.46675816  0.14461131  0.00432233     0.42710
H921        H  0.41488514  0.20767954  0.05321530     0.42390
H922        H  0.42483123  0.31270536  0.07403872     0.40320
H923        H  0.49350325  0.36649116  0.03434737     0.43460
H924        H  0.52525787  0.37618663  0.95078491     0.38240
H925        H  0.58784458  0.32603317  0.91617932     0.44360
H926        H  0.59034723  0.22619831  0.91467933     0.40770
H927        H  0.44595719  0.34307843  0.07460769     0.45690
H928        H  0.54816006  0.37405501  0.97979573     0.44410
H929        H  0.57907539  0.19226545  0.90498414     0.44550
H930        H  0.44228455  0.15485861  0.97856971     0.44910
O931        O  0.49880214  0.92752759  0.17057122    -0.73960
O932        O  0.54468126  0.91985005  0.19756159    -0.52870
C933        C  0.52194824  0.91038570  0.17994759     0.79770
O934        O  0.53108778  0.09823916  0.18781225    -0.58560
O935        O  0.47824027  0.10054834  0.18821768    -0.51590
C936        C  0.50522694  0.11134392  0.17957460     0.71780
O937        O  0.59268348  0.01379355  0.16780780    -0.73120
O938        O  0.59637863  0.96616548  0.19290318    -0.53680
C939        C  0.60663484  0.98757979  0.17417103     0.77780
O940        O  0.42734579  0.00167401  0.18541375    -0.58260
O941        O  0.42792857  0.05434961  0.18374871    -0.51380
C942        C  0.41793645  0.02772727  0.17370285     0.74380
Zr943      Zr  0.47947283  0.98089795  0.17599807     2.54710
O944        O  0.49296541  0.99276881  0.12129208    -0.78830
O945        O  0.44031579  0.95085075  0.14652550    -0.92250
Zr946      Zr  0.54511956  0.04363338  0.17901780     2.64680
O947        O  0.53387746  0.04956159  0.12284357    -0.97200
O948        O  0.59123123  0.07463383  0.16470578    -0.79260
O949        O  0.53426121  0.98890024  0.17823920    -0.82620
O950        O  0.49034980  0.03550347  0.17540561    -2.17330
O951        O  0.41939317  0.99577349  0.26032073    -0.66010
O952        O  0.41703714  0.04802450  0.24792791    -0.50580
C953        C  0.40372334  0.02126602  0.25355321     0.72760
O954        O  0.59818871  0.02546982  0.27513026    -0.58920
O955        O  0.60090072  0.97507093  0.25603630    -0.50900
C956        C  0.61386307  0.00040053  0.26674335     0.74560
O957        O  0.52705867  0.10124992  0.26392289    -0.70310
O958        O  0.47462371  0.10359329  0.25474295    -0.48990
C959        C  0.50129173  0.11715224  0.25892823     0.75940
O960        O  0.49253792  0.92221010  0.27198423    -0.65640
O961        O  0.54484153  0.92310412  0.26218582    -0.52840
C962        C  0.51898261  0.90790501  0.26571969     0.74330
Zr963      Zr  0.47478261  0.97918590  0.27130518     2.77540
O964        O  0.47871040  0.99160783  0.32739307    -0.96390
O965        O  0.43693208  0.94492115  0.29775458    -0.77210
Zr966      Zr  0.54244427  0.04472673  0.27349511     2.70070
O967        O  0.52816929  0.03951136  0.32904376    -0.78460
O968        O  0.57764863  0.07906509  0.30326659    -0.97540
Zr969      Zr  0.55167067  0.96790414  0.22760809     2.21500
Zr970      Zr  0.46831901  0.05640724  0.22371263     2.11130
O971        O  0.48670914  0.03472227  0.27297810    -2.46230
O972        O  0.53024905  0.98932339  0.27534894    -0.78250
O973        O  0.45712907  0.00143253  0.22307013    -0.70450
O974        O  0.56434283  0.02274840  0.22639614    -2.31410
O975        O  0.49641261  0.95833733  0.22400685    -2.27610
O976        O  0.52348361  0.06572559  0.22557214    -0.72210
H977        H  0.48180137  0.04569224  0.15686506     0.79790
H978        H  0.58637524  0.02719829  0.22347369     0.80880
H979        H  0.47625725  0.04493849  0.29056257     0.83100
H980        H  0.48948608  0.93687221  0.22230568     0.80710
H981        H  0.60104487  0.08015894  0.18521072     0.43740
H982        H  0.58796134  0.09243390  0.28705583     0.42710
H983        H  0.54327560  0.02377274  0.33747262     0.42390
H984        H  0.45687474  0.99672715  0.33397380     0.40320
H985        H  0.42715410  0.93255829  0.28047282     0.43460
H986        H  0.43367755  0.93381152  0.16112543     0.38240
H987        H  0.50657547  0.97493647  0.11457981     0.44360
H988        H  0.52870113  0.07224366  0.12024554     0.40770
H989        H  0.48338132  0.97111665  0.33769388     0.45690
H990        H  0.45223550  0.93989605  0.12958461     0.44410
H991        H  0.55460819  0.04701486  0.11233525     0.44550
H992        H  0.56363746  0.09371699  0.31499957     0.44910
O993        O  0.35546179  0.95487906  0.98064136    -0.73960
O994        O  0.32485069  0.94125901  0.02297361    -0.52870
C995        C  0.34992967  0.93933842  0.00628786     0.79770
O996        O  0.33049467  0.10630486  0.97757834    -0.58560
O997        O  0.30421335  0.10728030  0.93055827    -0.51590
C998        C  0.32293321  0.11897630  0.95116829     0.71780
O999        O  0.34543304  0.03195834  0.05038828    -0.73120
O1000       O  0.31879121  0.98728195  0.06445110    -0.53680
C1001       C  0.34029844  0.00820070  0.06829882     0.77780
O1002       O  0.33503170  0.01593241  0.89293723    -0.58260
O1003       O  0.30462080  0.06004098  0.88663187    -0.51380
C1004       C  0.32528430  0.04007962  0.87717820     0.74380
Zr1005     Zr  0.32858593  0.99064911  0.94418483     2.54710
O1006       O  0.38491372  0.99740064  0.93556892    -0.78830
O1007       O  0.32964468  0.94385299  0.91058571    -0.92250
Zr1008     Zr  0.32182287  0.05843457  0.00662822     2.64680
O1009       O  0.37850398  0.06759336  0.00675442    -0.97200
O1010       O  0.31458737  0.09847948  0.04746269    -0.79260
O1011       O  0.32748704  0.00392805  0.99813703    -0.82620
O1012       O  0.32307658  0.04546613  0.95255794    -2.17330
O1013       O  0.24422972  0.99489068  0.88873792    -0.66010
O1014       O  0.24190701  0.04806267  0.88668808    -0.50580
C1015       C  0.24426146  0.02118562  0.87289019     0.72760
O1016       O  0.23044019  0.03140302  0.06677239    -0.58920
O1017       O  0.25320303  0.98277096  0.07000353    -0.50900
C1018       C  0.24069841  0.00737525  0.08277709     0.74560
O1019       O  0.23359317  0.10547466  0.99473597    -0.70310
O1020       O  0.24150712  0.10811733  0.94187611    -0.48990
C1021       C  0.23690455  0.12155708  0.96880519     0.75940
O1022       O  0.24138566  0.92443668  0.96636564    -0.65640
O1023       O  0.26114602  0.92574630  0.01640362    -0.52840
C1024       C  0.25137716  0.91062667  0.99188527     0.74330
Zr1025     Zr  0.23562184  0.97935731  0.94537704     2.77540
O1026       O  0.17824742  0.98102594  0.94809408    -0.96390
O1027       O  0.21281971  0.94058761  0.90957652    -0.77210
Zr1028     Zr  0.22857507  0.04872598  0.01047368     2.70070
O1029       O  0.17328767  0.03987639  0.99807345    -0.78460
O1030       O  0.19620087  0.08068042  0.04593707    -0.97540
Zr1031     Zr  0.28282195  0.97865555  0.02112170     2.21500
Zr1032     Zr  0.27236392  0.06042888  0.93309448     2.11130
O1033       O  0.22708746  0.03489856  0.95531955    -2.46230
O1034       O  0.23239278  0.99285920  0.00063482    -0.78250
O1035       O  0.27944404  0.00557949  0.92328195    -0.70450
O1036       O  0.27856407  0.03384560  0.03128161    -2.31410
O1037       O  0.28547952  0.96405109  0.96659246    -2.27610
O1038       O  0.27247766  0.07393203  0.98730254    -0.72210
H1039       H  0.33999686  0.05645306  0.94194197     0.79790
H1040       H  0.28180714  0.03917931  0.05320423     0.80880
H1041       H  0.20819057  0.04268757  0.94526781     0.83100
H1042       H  0.29174139  0.94237889  0.96336523     0.80710
H1043       H  0.31653479  0.08695084  0.06774768     0.43740
H1044       H  0.21124796  0.09516725  0.05639336     0.42710
H1045       H  0.16556244  0.02622117  0.01544641     0.42390
H1046       H  0.17325597  0.98296151  0.97088938     0.40320
H1047       H  0.23120318  0.93000367  0.89967514     0.43460
H1048       H  0.33915199  0.92711418  0.92388527     0.38240
H1049       H  0.39179410  0.01117990  0.95318337     0.44360
H1050       H  0.38436501  0.06978902  0.98417721     0.40770
H1051       H  0.17193139  0.00149538  0.93870990     0.45690
H1052       H  0.34591662  0.94849764  0.89442640     0.44410
H1053       H  0.38103018  0.08907289  0.01570317     0.44550
H1054       H  0.18354630  0.09450885  0.03194753     0.44910
O1055       O  0.69001984  0.02235945  0.06776371    -0.73960
O1056       O  0.71688027  0.97562097  0.06989084    -0.52870
C1057       C  0.69666439  0.99545075  0.08038136     0.79770
O1058       O  0.73413211  0.02166281  0.90236715    -0.58560
O1059       O  0.72771089  0.07356480  0.90537676    -0.51590
C1060       C  0.72117759  0.04692478  0.89262565     0.71780
O1061       O  0.70818787  0.94397823  0.96624020    -0.73120
O1062       O  0.72690555  0.93576893  0.01627283    -0.53680
C1063       C  0.71261331  0.92723585  0.99095344     0.77780
O1064       O  0.71338819  0.10987215  0.01250056    -0.58260
O1065       O  0.71781698  0.11584412  0.96010650    -0.51380
C1066       C  0.70520673  0.12318862  0.98678207     0.74380
Zr1067     Zr  0.70317558  0.05450736  0.02147561     2.54710
O1068       O  0.64996261  0.05295961  0.00004296    -0.78830
O1069       O  0.67306235  0.08637973  0.05897147    -0.92250
Zr1070     Zr  0.71616704  0.99753496  0.95050767     2.64680
O1071       O  0.66004854  0.00858552  0.94513470    -0.97200
O1072       O  0.70058659  0.96330436  0.90697265    -0.79260
O1073       O  0.70860945  0.00118167  0.00588669    -0.82620
O1074       O  0.70942172  0.05066401  0.96590833    -2.17330
O1075       O  0.78559704  0.11898339  0.02009504    -0.66010
O1076       O  0.78710714  0.12273820  0.96686773    -0.50580
C1077       C  0.78437303  0.13546787  0.99417287     0.72760
O1078       O  0.81181125  0.94357514  0.97624856    -0.58920
O1079       O  0.79142150  0.93820325  0.02561128    -0.50900
C1080       C  0.80260117  0.92632879  0.00001706     0.74560
O1081       O  0.80371634  0.02083581  0.90606919    -0.70310
O1082       O  0.79133589  0.07291725  0.90593998    -0.48990
C1083       C  0.79780657  0.04709373  0.89122649     0.75940
O1084       O  0.79226741  0.03814340  0.08806486    -0.65640
O1085       O  0.77694615  0.98688252  0.08321877    -0.52840
C1086       C  0.78394012  0.01116012  0.10015603     0.74330
Zr1087     Zr  0.79651845  0.06217307  0.03394176     2.77540
O1088       O  0.85394847  0.06344148  0.03308514    -0.96390
O1089       O  0.81411692  0.09822177  0.07516518    -0.77210
Zr1090     Zr  0.80995623  0.00141285  0.96173741     2.70070
O1091       O  0.86388278  0.01760934  0.97251808    -0.78460
O1092       O  0.84497509  0.97100579  0.92749633    -0.97540
Zr1093     Zr  0.75604643  0.98260286  0.02993895     2.21500
Zr1094     Zr  0.75877625  0.07591615  0.95305420     2.11130
O1095       O  0.80563682  0.05579387  0.97802881    -2.46230
O1096       O  0.80472292  0.00814329  0.01789946    -0.78250
O1097       O  0.75073418  0.08096303  0.00859234    -0.70450
O1098       O  0.76169855  0.97608461  0.97429049    -2.31410
O1099       O  0.74858380  0.03585954  0.04704526    -2.27610
O1100       O  0.76416918  0.02219116  0.93799221    -0.72210
H1101       H  0.69198303  0.06030399  0.95487072     0.79790
H1102       H  0.76174863  0.95469485  0.96669457     0.80880
H1103       H  0.82368949  0.06778066  0.97101669     0.83100
H1104       H  0.74293458  0.03857168  0.06890867     0.80710
H1105       H  0.72059610  0.95389328  0.89933692     0.43740
H1106       H  0.83075181  0.96028599  0.91237218     0.42710
H1107       H  0.87279249  0.00003987  0.98514772     0.42390
H1108       H  0.86052429  0.04104922  0.03141607     0.40320
H1109       H  0.79446421  0.10554760  0.08554520     0.43460
H1110       H  0.68555008  0.08591001  0.07873426     0.38240
H1111       H  0.64042567  0.03390536  0.00967996     0.44360
H1112       H  0.65676467  0.01169259  0.92216883     0.40770
H1113       H  0.85989282  0.07306391  0.01260075     0.45690
H1114       H  0.65394408  0.07387638  0.06380473     0.44410
H1115       H  0.64966948  0.98817832  0.94985873     0.44550
H1116       H  0.85630744  0.98688818  0.91459550     0.44910
O1117       O  0.03805002  0.85470393  0.55991241    -0.73960
O1118       O  0.99283837  0.82890915  0.57404310    -0.52870
C1119       C  0.01515794  0.84885752  0.57882948     0.79770
O1120       O  0.99818376  0.80756279  0.39846967    -0.58560
O1121       O  0.05090379  0.80689787  0.39384311    -0.51590
C1122       C  0.02339131  0.81404425  0.38339715     0.71780
O1123       O  0.93880821  0.83730281  0.47818008    -0.73120
O1124       O  0.93842737  0.82117928  0.52970847    -0.53680
C1125       C  0.92613496  0.83480943  0.50561270     0.77780
O1126       O  0.09833324  0.85189606  0.47319944    -0.58260
O1127       O  0.10416126  0.81821929  0.43128619    -0.51380
C1128       C  0.11090596  0.84334432  0.44692356     0.74380
Zr1129     Zr  0.05710673  0.83704982  0.50936703     2.54710
O1130       O  0.04990066  0.89386026  0.50355266    -0.78830
O1131       O  0.10451985  0.84427501  0.54092454    -0.92250
Zr1132     Zr  0.98762240  0.82516680  0.45145866     2.64680
O1133       O  0.00089754  0.88039836  0.44209369    -0.97200
O1134       O  0.94559432  0.84155784  0.41588332    -0.79260
O1135       O  0.00158407  0.83462876  0.50464083    -0.82620
O1136       O  0.04242287  0.82905882  0.45630071    -2.17330
O1137       O  0.11663825  0.75364666  0.50526105    -0.66010
O1138       O  0.11669380  0.75798082  0.45169440    -0.50580
C1139       C  0.13121618  0.75679047  0.47840971     0.72760
O1140       O  0.93586504  0.73311212  0.48653212    -0.58920
O1141       O  0.93599056  0.75912425  0.53366843    -0.50900
C1142       C  0.92136361  0.74579398  0.51053185     0.74560
O1143       O  0.00191861  0.73488416  0.40654374    -0.70310
O1144       O  0.05435340  0.74091069  0.40032535    -0.48990
C1145       C  0.02669555  0.73746614  0.38860805     0.75940
O1146       O  0.04686499  0.75089819  0.58229128    -0.65640
O1147       O  0.99565215  0.76656932  0.58516974    -0.52840
C1148       C  0.02224353  0.76007197  0.59823055     0.74330
Zr1149     Zr  0.06204768  0.74396668  0.52521975     2.77540
O1150       O  0.05945363  0.68665975  0.52071925    -0.96390
O1151       O  0.10107880  0.72306020  0.56191118    -0.77210
Zr1152     Zr  0.99088375  0.73149304  0.46480562     2.70070
O1153       O  0.00637233  0.67755069  0.47749427    -0.78460
O1154       O  0.95548930  0.69557302  0.43723133    -0.97540
Zr1155     Zr  0.98503318  0.78905300  0.53361431     2.21500
Zr1156     Zr  0.06417584  0.77881621  0.44183245     2.11130
O1157       O  0.04719832  0.73336887  0.47141056    -2.46230
O1158       O  0.00597736  0.73855370  0.51914059    -0.78250
O1159       O  0.07900646  0.78797570  0.49506881    -0.70450
O1160       O  0.96977142  0.78140425  0.47997342    -2.31410
O1161       O  0.04063136  0.79351746  0.53961080    -2.27610
O1162       O  0.00862285  0.77578556  0.43617414    -0.72210
H1163       H  0.04947129  0.84584507  0.44257115     0.79790
H1164       H  0.94765422  0.78303594  0.47555262     0.80880
H1165       H  0.05726727  0.71447205  0.46342479     0.83100
H1166       H  0.04732165  0.79926123  0.56053378     0.80710
H1167       H  0.93315603  0.82211963  0.41221413     0.43740
H1168       H  0.94338562  0.70926274  0.42262253     0.42710
H1169       H  0.99306405  0.67185397  0.49589343     0.42390
H1170       H  0.08137949  0.67997883  0.51615439     0.40320
H1171       H  0.11171138  0.74197595  0.57061259     0.43460
H1172       H  0.10196898  0.82962461  0.55900855     0.38240
H1173       H  0.02693020  0.89724948  0.50605530     0.44360
H1174       H  0.00213768  0.88228278  0.41876847     0.40770
H1175       H  0.05534028  0.67918206  0.54253299     0.45690
H1176       H  0.10226061  0.86562433  0.55027916     0.44410
H1177       H  0.98159349  0.89221898  0.44799446     0.44550
H1178       H  0.96926688  0.68279272  0.42324405     0.44910
O1179       O  0.84584873  0.01533839  0.42366776    -0.73960
O1180       O  0.81797218  0.96938217  0.41867007    -0.52870
C1181       C  0.84016638  0.98822147  0.41097736     0.79770
O1182       O  0.83251161  0.02413908  0.58233483    -0.58560
O1183       O  0.80463615  0.07011691  0.58286303    -0.51590
C1184       C  0.82400771  0.05041052  0.59507994     0.71780
O1185       O  0.84993376  0.95658799  0.49822706    -0.73120
O1186       O  0.81337021  0.92849527  0.47247371    -0.53680
C1187       C  0.83864841  0.93026978  0.48884794     0.77780
O1188       O  0.83147088  0.10256246  0.48601554    -0.58260
O1189       O  0.80453536  0.10944312  0.53244637    -0.51380
C1190       C  0.82366535  0.11827721  0.51082970     0.74380
Zr1191     Zr  0.82308133  0.05071202  0.46359197     2.54710
O1192       O  0.87989751  0.05828297  0.46556106    -0.78830
O1193       O  0.81959906  0.08422921  0.41685925    -0.92250
Zr1194     Zr  0.82514752  0.99223366  0.53519851     2.64680
O1195       O  0.88160255  0.99536827  0.54530379    -0.97200
O1196       O  0.82431601  0.94953620  0.57398967    -0.79260
O1197       O  0.82551875  0.99774899  0.47966108    -0.82620
O1198       O  0.82240878  0.04535418  0.51935645    -2.17330
O1199       O  0.73593647  0.10382853  0.47164764    -0.66010
O1200       O  0.74008073  0.10939854  0.52450786    -0.50580
C1201       C  0.73812093  0.12140221  0.49672058     0.72760
O1202       O  0.73566530  0.92683700  0.51788150    -0.58920
O1203       O  0.74806581  0.92567578  0.46588415    -0.50900
C1204       C  0.74321733  0.91160847  0.49225689     0.74560
O1205       O  0.74153381  0.00381207  0.58876517    -0.70310
O1206       O  0.74387743  0.05702181  0.58641397    -0.48990
C1207       C  0.74413990  0.03122107  0.60239444     0.75940
O1208       O  0.73059867  0.02250257  0.40664247    -0.65640
O1209       O  0.75495358  0.97455788  0.40745028    -0.52840
C1210       C  0.74150219  0.99748503  0.39258743     0.74330
Zr1211     Zr  0.72912822  0.04600237  0.46076641     2.77540
O1212       O  0.67237054  0.04134276  0.46842944    -0.96390
O1213       O  0.70067223  0.07786215  0.42225962    -0.77210
Zr1214     Zr  0.73133173  0.98395030  0.53373153     2.70070
O1215       O  0.67471374  0.99259958  0.53028058    -0.78460
O1216       O  0.70477757  0.94878833  0.57081250    -0.97540
Zr1217     Zr  0.77949289  0.97243832  0.45946615     2.21500
Zr1218     Zr  0.77203859  0.06380538  0.53695208     2.11130
O1219       O  0.72581234  0.03825176  0.51717390    -2.46230
O1220       O  0.72965974  0.99157937  0.47730902    -0.78250
O1221       O  0.77428724  0.07111584  0.48134156    -0.70450
O1222       O  0.78089715  0.96486051  0.51559932    -2.31410
O1223       O  0.77843970  0.02604191  0.44231704    -2.27610
O1224       O  0.77614858  0.01055102  0.55312861    -0.72210
H1225       H  0.83958632  0.05702439  0.52869219     0.79790
H1226       H  0.78544250  0.94347992  0.52189190     0.80880
H1227       H  0.70720960  0.04791428  0.52618319     0.83100
H1228       H  0.78244530  0.02859146  0.42002637     0.80710
H1229       H  0.81975402  0.92998726  0.56199403     0.43740
H1230       H  0.72197759  0.93963780  0.58372498     0.42710
H1231       H  0.66684527  0.97424139  0.51811346     0.42390
H1232       H  0.66882067  0.01892056  0.47399020     0.40320
H1233       H  0.71733376  0.08885090  0.41007795     0.43460
H1234       H  0.82176472  0.06962036  0.39867289     0.38240
H1235       H  0.88742185  0.04183054  0.48040718     0.44360
H1236       H  0.88656540  0.01820635  0.54431044     0.40770
H1237       H  0.66746920  0.05333401  0.48794096     0.45690
H1238       H  0.83947442  0.09645723  0.41689483     0.44410
H1239       H  0.88406319  0.98973096  0.56790115     0.44550
H1240       H  0.69325093  0.96289602  0.58554854     0.44910
O1241       O  0.19079969  0.95443633  0.47881103    -0.73960
O1242       O  0.22057863  0.94566072  0.43460444    -0.52870
C1243       C  0.19737092  0.93976405  0.45287576     0.79770
O1244       O  0.22416790  0.11686010  0.46740906    -0.58560
O1245       O  0.22247239  0.11641385  0.51984334    -0.51590
C1246       C  0.21316744  0.12753019  0.49318044     0.71780
O1247       O  0.19308611  0.03691771  0.40595964    -0.73120
O1248       O  0.21764005  0.99084127  0.39329902    -0.53680
C1249       C  0.19652025  0.01211977  0.38933340     0.77780
O1250       O  0.22523102  0.01312672  0.56561245    -0.58260
O1251       O  0.22385482  0.06588550  0.56734046    -0.51380
C1252       C  0.21445208  0.03878152  0.57708846     0.74380
Zr1253     Zr  0.21163637  0.99651706  0.51275130     2.54710
O1254       O  0.15652118  0.00897765  0.52303615    -0.78830
O1255       O  0.20131365  0.95127213  0.54683122    -0.92250
Zr1256     Zr  0.20945055  0.06482223  0.45109213     2.64680
O1257       O  0.15343040  0.07108303  0.46341723    -0.97200
O1258       O  0.19143730  0.10172244  0.41078177    -0.79260
O1259       O  0.20997211  0.00968079  0.45886935    -0.82620
O1260       O  0.21041089  0.05213831  0.50517261    -2.17330
O1261       O  0.29940215  0.01086799  0.56571214    -0.66010
O1262       O  0.29040296  0.06349528  0.57069465    -0.50580
C1263       C  0.29538235  0.03609634  0.58280734     0.72760
O1264       O  0.29815147  0.04685567  0.38584982    -0.58920
O1265       O  0.28390613  0.99513995  0.38523392    -0.50900
C1266       C  0.29019870  0.02114617  0.37098354     0.74560
O1267       O  0.29380716  0.11967768  0.46077399    -0.70310
O1268       O  0.28842546  0.12145789  0.51411549    -0.48990
C1269       C  0.29024474  0.13523173  0.48705894     0.75940
O1270       O  0.30565262  0.94044517  0.48927737    -0.65640
O1271       O  0.28432800  0.93859540  0.44002736    -0.52840
C1272       C  0.29630941  0.92507248  0.46451334     0.74330
Zr1273     Zr  0.30567898  0.99588390  0.50869256     2.77540
O1274       O  0.36231308  0.00357916  0.50268855    -0.96390
O1275       O  0.33387381  0.96060052  0.54430101    -0.77210
Zr1276     Zr  0.30271598  0.06401834  0.44276097     2.70070
O1277       O  0.35923216  0.05915168  0.45116546    -0.78460
O1278       O  0.32932105  0.09995443  0.40646349    -0.97540
Zr1279     Zr  0.25643501  0.98864642  0.43484158     2.21500
Zr1280     Zr  0.26007011  0.07276477  0.52340153     2.11130
O1281       O  0.30679482  0.05177718  0.49838830    -2.46230
O1282       O  0.30577239  0.00833634  0.45316807    -0.78250
O1283       O  0.25987523  0.01711636  0.53171421    -0.70450
O1284       O  0.25358461  0.04404898  0.42433640    -2.31410
O1285       O  0.25699624  0.97461616  0.48949105    -2.27610
O1286       O  0.25784208  0.08444133  0.46859784    -0.72210
H1287       H  0.19303391  0.06177795  0.51619056     0.79790
H1288       H  0.24858795  0.04934330  0.40276953     0.80880
H1289       H  0.32518595  0.06159928  0.50750170     0.83100
H1290       H  0.25344002  0.95246743  0.49338082     0.80710
H1291       H  0.21060207  0.10665452  0.39833304     0.43740
H1292       H  0.31225598  0.11327438  0.39762589     0.42710
H1293       H  0.36676428  0.04637499  0.43301965     0.42390
H1294       H  0.36613917  0.00320677  0.47958965     0.40320
H1295       H  0.31714599  0.94836273  0.55511606     0.43460
H1296       H  0.21334643  0.93363488  0.53719609     0.38240
H1297       H  0.14578304  0.00470653  0.50270602     0.44360
H1298       H  0.15070953  0.06838705  0.48647275     0.40770
H1299       H  0.36660656  0.02559236  0.50926348     0.45690
H1300       H  0.17893038  0.94591207  0.54302469     0.44410
H1301       H  0.14881027  0.09368445  0.45951782     0.44550
H1302       H  0.34159048  0.11445242  0.42007815     0.44910
O1303       O  0.91895214  0.29544858  0.45681179    -0.73960
O1304       O  0.91672399  0.29988676  0.50988357    -0.52870
C1305       C  0.90301346  0.29620285  0.48314522     0.79770
O1306       O  0.00998767  0.18295143  0.42052250    -0.58560
O1307       O  0.05305905  0.21196559  0.40630064    -0.51590
C1308       C  0.03554446  0.18745751  0.40465775     0.71780
O1309       O  0.92514890  0.20457828  0.48309009    -0.73120
O1310       O  0.91903860  0.23608725  0.52667162    -0.53680
C1311       C  0.91015788  0.21443184  0.50759283     0.77780
O1312       O  0.99724310  0.29733682  0.38697145    -0.58260
O1313       O  0.04631242  0.27546173  0.38885079    -0.51380
C1314       C  0.02243297  0.28629637  0.37337834     0.74380
Zr1315     Zr  0.97588353  0.30380767  0.44166668     2.54710
O1316       O  0.94131232  0.32624662  0.40154659    -0.78830
O1317       O  0.98006090  0.36101473  0.44640528    -0.92250
Zr1318     Zr  0.97497082  0.21138787  0.45642470     2.64680
O1319       O  0.94052856  0.21118995  0.41036521    -0.97200
O1320       O  0.96549397  0.15503274  0.46283727    -0.79260
O1321       O  0.95386179  0.26112184  0.46968193    -0.82620
O1322       O  0.99755325  0.25335040  0.42829954    -2.17330
O1323       O  0.09703583  0.30899456  0.49373600    -0.66010
O1324       O  0.10087690  0.28472709  0.44572521    -0.50580
C1325       C  0.11321473  0.29744820  0.47037969     0.72760
O1326       O  0.01097243  0.22058465  0.57489287    -0.58920
O1327       O  0.96296423  0.24454429  0.57508299    -0.50900
C1328       C  0.98529989  0.22910702  0.58846006     0.74560
O1329       O  0.08307048  0.19871884  0.50227635    -0.70310
O1330       O  0.09520642  0.21873672  0.45389103    -0.48990
C1331       C  0.10064126  0.20068524  0.47783168     0.75940
O1332       O  0.02507384  0.31047899  0.56717666    -0.65640
O1333       O  0.97213991  0.30575983  0.56879770    -0.52840
C1334       C  0.99880025  0.30870247  0.58286607     0.74330
Zr1335     Zr  0.04073479  0.31332955  0.51010589     2.77540
O1336       O  0.07284572  0.34841594  0.54246530    -0.96390
O1337       O  0.02926745  0.36790230  0.49588873    -0.77210
Zr1338     Zr  0.03603632  0.22015730  0.52407505     2.70070
O1339       O  0.07724127  0.21994747  0.56403753    -0.78460
O1340       O  0.02660060  0.16396266  0.53199312    -0.97540
Zr1341     Zr  0.96338408  0.27061857  0.52426777     2.21500
Zr1342     Zr  0.05200783  0.25522806  0.44259200     2.11130
O1343       O  0.06088462  0.26222963  0.49772844    -2.46230
O1344       O  0.01740690  0.27057295  0.53704388    -0.78250
O1345       O  0.03120219  0.30648496  0.45449317    -0.70450
O1346       O  0.98250930  0.21899190  0.51135824    -2.31410
O1347       O  0.98569354  0.31466191  0.49669207    -2.27610
O1348       O  0.02873019  0.21169121  0.46970645    -0.72210
H1349       H  0.99428311  0.24669868  0.40674858     0.79790
H1350       H  0.97224495  0.20266357  0.52355563     0.80880
H1351       H  0.08248481  0.25885437  0.50379567     0.83100
H1352       H  0.97579850  0.33410883  0.50347840     0.80710
H1353       H  0.97453774  0.14989185  0.48379010     0.43740
H1354       H  0.03255288  0.15402896  0.51161560     0.42710
H1355       H  0.08056341  0.24256934  0.56901904     0.42390
H1356       H  0.08793073  0.33425956  0.55337740     0.40320
H1357       H  0.04355113  0.37235490  0.47788304     0.43460
H1358       H  0.95807017  0.36848020  0.44900393     0.38240
H1359       H  0.93058970  0.30777960  0.39203536     0.44360
H1360       H  0.95253843  0.19966094  0.39387785     0.40770
H1361       H  0.08592262  0.36056366  0.52734073     0.45690
H1362       H  0.98636241  0.36830094  0.42505518     0.44410
H1363       H  0.92315626  0.19669324  0.41615448     0.44550
H1364       H  0.04325964  0.15721509  0.54692262     0.44910
O1365       O  0.02936472  0.92116518  0.20481421    -0.73960
O1366       O  0.97688986  0.91763869  0.21280503    -0.52870
C1367       C  0.00407007  0.90458354  0.20996876     0.79770
O1368       O  0.09108331  0.00345164  0.30356743    -0.58560
O1369       O  0.09929947  0.05004364  0.27794037    -0.51590
C1370       C  0.10624998  0.02887139  0.29828959     0.71780
O1371       O  0.03079872  0.91941560  0.27574344    -0.73120
O1372       O  0.97854837  0.91722491  0.28073767    -0.53680
C1373       C  0.00616114  0.90661684  0.28714174     0.77780
O1374       O  0.09862437  0.99754465  0.19389930    -0.58260
O1375       O  0.10052643  0.04738318  0.21416745    -0.51380
C1376       C  0.11407949  0.02249538  0.20297797     0.74380
Zr1377     Zr  0.04254299  0.97833635  0.19533667     2.54710
O1378       O  0.07536575  0.94484317  0.16184318    -0.78830
O1379       O  0.02587510  0.98671854  0.14089140    -0.92250
Zr1380     Zr  0.04733240  0.97199402  0.28859149     2.64680
O1381       O  0.09561517  0.94056448  0.29154962    -0.97200
O1382       O  0.04084772  0.96067627  0.34481354    -0.79260
O1383       O  0.02399705  0.95426557  0.24183998    -0.82620
O1384       O  0.06590368  0.99698872  0.24298151    -2.17330
O1385       O  0.99144435  0.09986271  0.20685835    -0.66010
O1386       O  0.04314612  0.10242220  0.22115071    -0.50580
C1387       C  0.01697467  0.11553475  0.21312295     0.72760
O1388       O  0.93920362  0.00189141  0.31790769    -0.58920
O1389       O  0.92908579  0.95858761  0.28732327    -0.50900
C1390       C  0.92441688  0.97626332  0.31153987     0.74560
O1391       O  0.01635946  0.07288479  0.32205791    -0.70310
O1392       O  0.05445001  0.08994397  0.28813653    -0.48990
C1393       C  0.03962092  0.09071774  0.31457492     0.75940
O1394       O  0.91912463  0.02619539  0.21772163    -0.65640
O1395       O  0.91721574  0.97294804  0.22458639    -0.52840
C1396       C  0.90368202  0.00009933  0.22224605     0.74330
Zr1397     Zr  0.97412734  0.04331058  0.20527374     2.77540
O1398       O  0.93445152  0.07701810  0.18068712    -0.96390
O1399       O  0.97604839  0.03472421  0.14834768    -0.77210
Zr1400     Zr  0.98082728  0.03534140  0.29818253     2.70070
O1401       O  0.94185752  0.07754539  0.29421933    -0.78460
O1402       O  0.97076898  0.03932978  0.35486814    -0.97540
Zr1403     Zr  0.96897131  0.96283152  0.24684749     2.21500
Zr1404     Zr  0.05283522  0.05164596  0.24605244     2.11130
O1405       O  0.99791318  0.06235318  0.25267554    -2.46230
O1406       O  0.95658673  0.01741619  0.25171544    -0.78250
O1407       O  0.02958388  0.03368978  0.19792789    -0.70450
O1408       O  0.99310574  0.98096043  0.29477255    -2.31410
O1409       O  0.98655197  0.98809055  0.19887654    -2.27610
O1410       O  0.03532144  0.02603249  0.29328336    -0.72210
H1411       H  0.08803833  0.99269042  0.24538054     0.79790
H1412       H  0.98622920  0.96936750  0.31317736     0.80880
H1413       H  0.99377075  0.08407048  0.25824444     0.83100
H1414       H  0.97562081  0.97925537  0.18090971     0.80710
H1415       H  0.02494459  0.94363095  0.34598598     0.43740
H1416       H  0.99094301  0.03347383  0.36506548     0.42710
H1417       H  0.93339414  0.07582811  0.27247453     0.42390
H1418       H  0.92774772  0.09175920  0.19763398     0.40320
H1419       H  0.99179927  0.05014943  0.14060480     0.43460
H1420       H  0.02087320  0.96534178  0.13280573     0.38240
H1421       H  0.08900547  0.93313114  0.17680502     0.44360
H1422       H  0.11037021  0.95001900  0.27605910     0.40770
H1423       H  0.94606645  0.09038595  0.16539610     0.45690
H1424       H  0.04530097  0.99294214  0.12948234     0.44410
H1425       H  0.10493480  0.94525918  0.31249600     0.44550
H1426       H  0.96814935  0.06218814  0.35921743     0.44910
O1427       O  0.01141436  0.97470585  0.65071866    -0.73960
O1428       O  0.04911085  0.95422474  0.68230313    -0.52870
C1429       C  0.02856680  0.95177692  0.66022832     0.79770
O1430       O  0.01606268  0.12805357  0.67174483    -0.58560
O1431       O  0.97172156  0.13097666  0.70213499    -0.51590
C1432       C  0.99149300  0.14243581  0.68224913     0.71780
O1433       O  0.08730642  0.05226931  0.65060210    -0.73120
O1434       O  0.09946124  0.00463997  0.67262782    -0.53680
C1435       C  0.10423875  0.02726529  0.65298088     0.77780
O1436       O  0.92975485  0.03708063  0.67684887    -0.58260
O1437       O  0.92517760  0.08238557  0.70560114    -0.51380
C1438       C  0.91439328  0.06125936  0.68668025     0.74380
Zr1439     Zr  0.97955289  0.01061285  0.68099263     2.54710
O1440       O  0.96049188  0.00869602  0.62675514    -0.78830
O1441       O  0.94490538  0.96610000  0.69236117    -0.92250
Zr1442     Zr  0.04178766  0.07717956  0.67348782     2.64680
O1443       O  0.02728514  0.07818076  0.61777678    -0.97200
O1444       O  0.08173303  0.11734853  0.66417315    -0.79260
O1445       O  0.03308457  0.02230835  0.67187621    -0.82620
O1446       O  0.98814575  0.06562401  0.68107390    -2.17330
O1447       O  0.93662059  0.01808646  0.77042396    -0.66010
O1448       O  0.93212049  0.07118238  0.76857898    -0.50580
C1449       C  0.91958043  0.04363366  0.76977445     0.72760
O1450       O  0.11423145  0.05391774  0.75801793    -0.58920
O1451       O  0.11437731  0.00460735  0.73606238    -0.50900
C1452       C  0.12866804  0.02904094  0.74703680     0.74560
O1453       O  0.04111180  0.12968474  0.75884271    -0.70310
O1454       O  0.98827118  0.12963412  0.76407367    -0.48990
C1455       C  0.01430928  0.14454354  0.76031213     0.75940
O1456       O  0.01525029  0.94924401  0.76897026    -0.65640
O1457       O  0.06228966  0.94976199  0.74314439    -0.52840
C1458       C  0.03963945  0.93497391  0.75690666     0.74330
Zr1459     Zr  0.99410508  0.00451194  0.77362422     2.77540
O1460       O  0.00422437  0.01097672  0.83000808    -0.96390
O1461       O  0.96271553  0.96758820  0.80455513    -0.77210
Zr1462     Zr  0.05873029  0.07342298  0.76600131     2.70070
O1463       O  0.05453190  0.06922052  0.82328785    -0.78460
O1464       O  0.09853334  0.10791586  0.78899517    -0.97540
Zr1465     Zr  0.06158295  0.99947884  0.71489163     2.21500
Zr1466     Zr  0.97528679  0.08334340  0.73320387     2.11130
O1467       O  0.00438724  0.06049338  0.77644610    -2.46230
O1468       O  0.04886267  0.01750468  0.76705047    -0.78250
O1469       O  0.96611838  0.02822858  0.73168543    -0.70450
O1470       O  0.07189030  0.05490168  0.71464224    -2.31410
O1471       O  0.00747525  0.98604662  0.72221627    -2.27610
O1472       O  0.02914750  0.09551099  0.72423857    -0.72210
H1473       H  0.97563831  0.07607414  0.66511142     0.79790
H1474       H  0.09322617  0.05997075  0.70871514     0.80880
H1475       H  0.99726674  0.06955643  0.79617855     0.83100
H1476       H  0.00303016  0.96399252  0.71888179     0.80710
H1477       H  0.08925490  0.12304917  0.68558976     0.43740
H1478       H  0.10603822  0.12101467  0.77109672     0.42710
H1479       H  0.07315837  0.05656256  0.82954897     0.42390
H1480       H  0.02730016  0.01383246  0.83167530     0.40320
H1481       H  0.95093428  0.95517574  0.78862740     0.43460
H1482       H  0.95820730  0.94694902  0.69051809     0.38240
H1483       H  0.97069054  0.02696204  0.61629926     0.44360
H1484       H  0.00849457  0.09205570  0.61675202     0.40770
H1485       H  0.99502143  0.03164267  0.83599082     0.45690
H1486       H  0.93045972  0.96506907  0.67402577     0.44410
H1487       H  0.04420941  0.09059139  0.60749373     0.44550
H1488       H  0.08670561  0.12280678  0.80268207     0.44910
C1489       C  0.01962334  0.27383419  0.21582482     0.01890
C1490       C  0.01825879  0.25133213  0.23919085     0.01890
C1491       C  0.74756369  0.00488799  0.23434686     0.01890
C1492       C  0.77024056  0.00256428  0.25733427     0.01890
C1493       C  0.00887437  0.75143241  0.23251597     0.01890
C1494       C  0.01236670  0.77398242  0.25550689     0.01890
C1495       C  0.27078464  0.01594126  0.21687587     0.01890
C1496       C  0.24747168  0.01855641  0.23914818     0.01890
C1497       C  0.26894447  0.28873845  0.48625158     0.01890
C1498       C  0.24619679  0.26605617  0.48354524     0.01890
C1499       C  0.77033180  0.25594622  0.48719421     0.01890
C1500       C  0.74766399  0.27891752  0.49023371     0.01890
C1501       C  0.28754974  0.76827776  0.47641433     0.01890
C1502       C  0.26493693  0.79135549  0.47485268     0.01890
C1503       C  0.28592950  0.02600119  0.74068107     0.01890
C1504       C  0.26373515  0.02767059  0.71713642     0.01890
C1505       C  0.24121614  0.27861468  0.97210394     0.01890
C1506       C  0.26524077  0.25698560  0.97393816     0.01890
C1507       C  0.26607158  0.75385551  0.99498117     0.01890
C1508       C  0.28823144  0.77723095  0.99210779     0.01890
C1509       C  0.52153445  0.75345603  0.24329423     0.01890
C1510       C  0.51999018  0.77645616  0.22043967     0.01890
C1511       C  0.50829874  0.27446121  0.25131795     0.01890
C1512       C  0.50784827  0.25204241  0.22779594     0.01890
C1513       C  0.51373810  0.29600075  0.72738483     0.01890
C1514       C  0.51161909  0.27360171  0.75065415     0.01890
C1515       C  0.99901225  0.29874348  0.74023811     0.01890
C1516       C  0.00359966  0.27609764  0.71747975     0.01890
C1517       C  0.74290708  0.26733650  0.99522995     0.01890
C1518       C  0.76455110  0.29055960  0.98912829     0.01890
C1519       C  0.27796413  0.52397041  0.24897125     0.01890
C1520       C  0.25651829  0.51904759  0.22543857     0.01890
C1521       C  0.75468341  0.50418390  0.25103481     0.01890
C1522       C  0.77680026  0.50943139  0.22779345     0.01890
C1523       C  0.25634005  0.51666183  0.74544447     0.01890
C1524       C  0.28061358  0.51646155  0.72407666     0.01890
C1525       C  0.03631527  0.77569585  0.75403227     0.01890
C1526       C  0.03580562  0.79874439  0.73115258     0.01890
C1527       C  0.76339402  0.03957521  0.75719690     0.01890
C1528       C  0.78631792  0.03770302  0.73436167     0.01890
C1529       C  0.78981733  0.76965959  0.98897998     0.01890
C1530       C  0.76729325  0.79304942  0.98837531     0.01890
C1531       C  0.75781760  0.53857744  0.72869748     0.01890
C1532       C  0.78111033  0.54095495  0.75100912     0.01890
C1533       C  0.76432438  0.75775405  0.49192619     0.01890
C1534       C  0.78730286  0.78019371  0.49706047     0.01890
C1535       C  0.53353198  0.79560084  0.74313880     0.01890
C1536       C  0.52864621  0.77296884  0.72037555     0.01890
C1537       C  0.83397931  0.06769262  0.75402545     0.24930
C1538       C  0.82058146  0.03923980  0.74341208    -0.23180
C1539       C  0.83902924  0.01164300  0.74455550     0.19830
C1540       C  0.87042225  0.01252369  0.75530826     0.24870
C1541       C  0.88446523  0.04128464  0.76485276    -0.23130
C1542       C  0.86539180  0.06878393  0.76450302     0.19770
F1543       F  0.87719805  0.09709957  0.77379770    -0.13080
F1544       F  0.81659634  0.09465966  0.75408868    -0.15450
F1545       F  0.88742964  0.98531770  0.75472034    -0.15450
F1546       F  0.82670160  0.98368312  0.73490785    -0.13090
C1547       C  0.03902074  0.19602278  0.74093071     0.24930
C1548       C  0.01249963  0.17933714  0.75242467    -0.23180
C1549       C  0.98298389  0.19505306  0.75163584     0.19830
C1550       C  0.97998120  0.22556597  0.73889731     0.24870
C1551       C  0.00628335  0.24178585  0.72686993    -0.23130
C1552       C  0.03586946  0.22672290  0.72825183     0.19770
F1553       F  0.06191634  0.24183229  0.71738708    -0.13080
F1554       F  0.06797873  0.18231619  0.74073138    -0.15450
F1555       F  0.95115904  0.23952899  0.73869491    -0.15450
F1556       F  0.95655431  0.18080496  0.76276473    -0.13090
C1557       C  0.21412591  0.00105678  0.73807903     0.24930
C1558       C  0.22888202  0.02780577  0.72484740    -0.23180
C1559       C  0.21064593  0.05537429  0.72078385     0.19830
C1560       C  0.17872135  0.05632027  0.72997691     0.24870
C1561       C  0.16385526  0.02954525  0.74308081    -0.23130
C1562       C  0.18205117  0.00183645  0.74686505     0.19770
F1563       F  0.16866286  0.97529687  0.75886695    -0.13080
F1564       F  0.23070914  0.97388531  0.74202363    -0.15450
F1565       F  0.16187858  0.08306785  0.72444928    -0.15450
F1566       F  0.22378535  0.08169828  0.70814125    -0.13090
C1567       C  0.06414987  0.85103880  0.73268233     0.24930
C1568       C  0.03714024  0.83330477  0.73976254    -0.23180
C1569       C  0.01186613  0.84861975  0.75513039     0.19830
C1570       C  0.01338625  0.88102953  0.76276028     0.24870
C1571       C  0.04022780  0.89926421  0.75497337    -0.23130
C1572       C  0.06585017  0.88334858  0.74027113     0.19770
F1573       F  0.09252924  0.89911442  0.73222542    -0.13080
F1574       F  0.08906353  0.83702013  0.71810428    -0.15450
F1575       F  0.98786253  0.89470056  0.77656519    -0.15450
F1576       F  0.98502134  0.83249513  0.76162564    -0.13090
C1577       C  0.19600476  0.99141169  0.22491546     0.24930
C1578       C  0.21334835  0.01951927  0.22877497    -0.23180
C1579       C  0.19904966  0.04811218  0.21945165     0.19830
C1580       C  0.16760927  0.04888251  0.20867122     0.24870
C1581       C  0.14953925  0.02093350  0.20615614    -0.23130
C1582       C  0.16465201  0.99204176  0.21372606     0.19770
F1583       F  0.14842340  0.96444588  0.21261943    -0.13080
F1584       F  0.20906607  0.96330316  0.23316647    -0.15450
F1585       F  0.15457681  0.07728762  0.20139463    -0.15450
F1586       F  0.21544667  0.07555345  0.22108148    -0.13090
C1587       C  0.03794845  0.82649884  0.24140025     0.24930
C1588       C  0.01059592  0.80838251  0.24641230    -0.23180
C1589       C  0.98143252  0.82146565  0.23760997     0.19830
C1590       C  0.97950937  0.85170560  0.22403799     0.24870
C1591       C  0.00684817  0.87013285  0.21886778    -0.23130
C1592       C  0.03617008  0.85684751  0.22777192     0.19770
F1593       F  0.06325434  0.87352309  0.22427860    -0.13080
F1594       F  0.06664375  0.81461981  0.24899517    -0.15450
F1595       F  0.95055124  0.86299734  0.21634838    -0.15450
F1596       F  0.95456000  0.80462287  0.24187527    -0.13090
C1597       C  0.84921104  0.97553875  0.22252749     0.24930
C1598       C  0.86891372  0.00168268  0.22862433    -0.23180
C1599       C  0.85580856  0.02783757  0.24482129     0.19830
C1600       C  0.82420976  0.02760577  0.25496459     0.24870
C1601       C  0.80462921  0.00160414  0.24864060    -0.23130
C1602       C  0.81746882  0.97561360  0.23222475     0.19770
F1603       F  0.79926836  0.95004405  0.22587985    -0.13080
F1604       F  0.86068718  0.94974724  0.20721070    -0.15450
F1605       F  0.81258977  0.05307137  0.27070436    -0.15450
F1606       F  0.87395226  0.05315237  0.25226480    -0.13090
C1607       C  0.99100240  0.19805927  0.23875047     0.24930
C1608       C  0.01750600  0.21655777  0.23121295    -0.23180
C1609       C  0.04299347  0.20185033  0.21557091     0.19830
C1610       C  0.04206942  0.16950282  0.20784075     0.24870
C1611       C  0.01557632  0.15088460  0.21541447    -0.23130
C1612       C  0.98993497  0.16573316  0.23080069     0.19770
F1613       F  0.96452699  0.14852312  0.23996793    -0.13080
F1614       F  0.96609689  0.21128554  0.25405200    -0.15450
F1615       F  0.06745342  0.15619531  0.19341748    -0.15450
F1616       F  0.06935183  0.21862053  0.20866975    -0.13090
C1617       C  0.97254047  0.29399618  0.63486728     0.24930
C1618       C  0.99957952  0.30482167  0.61840095    -0.23180
C1619       C  0.02806822  0.30700201  0.63563269     0.19830
C1620       C  0.02958241  0.29761540  0.66764089     0.24870
C1621       C  0.00298395  0.28499758  0.68304467    -0.23130
C1622       C  0.97448400  0.28362486  0.66634169     0.19770
F1623       F  0.94824672  0.27199087  0.68055476    -0.13080
F1624       F  0.94419389  0.29177418  0.62020493    -0.15450
F1625       F  0.05719340  0.30055691  0.68350819    -0.15450
F1626       F  0.05470646  0.31777671  0.62148179    -0.13090
C1627       C  0.85318674  0.28025433  0.51254156     0.24930
C1628       C  0.86820241  0.28833481  0.48362676    -0.23180
C1629       C  0.85036545  0.28508351  0.45558567     0.19830
C1630       C  0.81902263  0.27376552  0.45650784     0.24870
C1631       C  0.80468811  0.26511343  0.48536777    -0.23130
C1632       C  0.82219879  0.26870671  0.51325925     0.19770
F1633       F  0.80913813  0.26136150  0.54162255    -0.13080
F1634       F  0.86862421  0.28263815  0.54053973    -0.15450
F1635       F  0.80270539  0.27110676  0.42907406    -0.15450
F1636       F  0.86326880  0.29246087  0.42713509    -0.13090
C1637       C  0.16914659  0.29864763  0.44946030     0.24930
C1638       C  0.14786740  0.29346721  0.47449679    -0.23180
C1639       C  0.15913109  0.27866559  0.50217711     0.19830
C1640       C  0.19071671  0.26918391  0.50472009     0.24870
C1641       C  0.21208755  0.27476435  0.47996252    -0.23130
C1642       C  0.20100390  0.28971636  0.45230188     0.19770
F1643       F  0.22089729  0.29494530  0.42768458    -0.13080
F1644       F  0.15901090  0.31209858  0.42215567    -0.15450
F1645       F  0.20038101  0.25448748  0.53152118    -0.15450
F1646       F  0.13908260  0.27163706  0.52623678    -0.13090
C1647       C  0.04874740  0.26757761  0.32256911     0.24930
C1648       C  0.02254130  0.28175127  0.33788324    -0.23180
C1649       C  0.99498975  0.28660971  0.31962115     0.19830
C1650       C  0.99345921  0.27658658  0.28784593     0.24870
C1651       C  0.01911490  0.26101251  0.27347799    -0.23130
C1652       C  0.04674510  0.25680058  0.29117843     0.19770
F1653       F  0.07218283  0.24250126  0.27784034    -0.13080
F1654       F  0.07637543  0.26321162  0.33813303    -0.15450
F1655       F  0.96654794  0.28151711  0.27122918    -0.15450
F1656       F  0.96903223  0.30027095  0.33259498    -0.13090
C1657       C  0.05432924  0.14556505  0.32896084     0.24930
C1658       C  0.04837717  0.11426816  0.33817063    -0.23180
C1659       C  0.04459703  0.10691778  0.37040100     0.19830
C1660       C  0.04274900  0.13097061  0.39262164     0.24870
C1661       C  0.04496624  0.16249846  0.38288269    -0.23130
C1662       C  0.05267953  0.16966632  0.35138904     0.19770
F1663       F  0.05531821  0.20008241  0.34176286    -0.13080
F1664       F  0.05812129  0.15321441  0.29797649    -0.15450
F1665       F  0.03694754  0.12362538  0.42337366    -0.15450
F1666       F  0.04018671  0.07662541  0.38004491    -0.13090
C1667       C  0.01253530  0.19231049  0.66153651     0.24930
C1668       C  0.98610410  0.17387240  0.66900695    -0.23180
C1669       C  0.95649839  0.18208485  0.65661534     0.19830
C1670       C  0.95465385  0.20436798  0.63223864     0.24870
C1671       C  0.98234208  0.21887449  0.62135290    -0.23130
C1672       C  0.01033359  0.21553687  0.63870859     0.19770
F1673       F  0.03696558  0.23111627  0.63000604    -0.13080
F1674       F  0.04152941  0.18485725  0.67290497    -0.15450
F1675       F  0.92703016  0.20831201  0.61659255    -0.15450
F1676       F  0.93045934  0.16532805  0.66450737    -0.13090
C1677       C  0.27517462  0.00230216  0.66428538     0.24930
C1678       C  0.27384559  0.02966451  0.68308518    -0.23180
C1679       C  0.28371465  0.05844368  0.66976798     0.19830
C1680       C  0.29263078  0.06023429  0.63776527     0.24870
C1681       C  0.29237503  0.03309944  0.61818237    -0.23130
C1682       C  0.28440977  0.00388645  0.63231097     0.19770
F1683       F  0.28350020  0.97699861  0.61480687    -0.13080
F1684       F  0.26656221  0.97401099  0.67669429    -0.15450
F1685       F  0.30097975  0.08882991  0.62587308    -0.15450
F1686       F  0.28437450  0.08505907  0.68767916    -0.13090
C1687       C  0.27783858  0.18739699  0.51395186     0.24930
C1688       C  0.28269084  0.16997902  0.48577078    -0.23180
C1689       C  0.27494773  0.18481313  0.45680176     0.19830
C1690       C  0.26138284  0.21518762  0.45627344     0.24870
C1691       C  0.25572046  0.23184618  0.48446316    -0.23130
C1692       C  0.26466313  0.21782902  0.51322024     0.19770
F1693       F  0.26114889  0.23395001  0.54077448    -0.13080
F1694       F  0.28555246  0.17498713  0.54252475    -0.15450
F1695       F  0.25350496  0.22828769  0.42805657    -0.15450
F1696       F  0.27891389  0.16946197  0.42886358    -0.13090
C1697       C  0.28564469  0.87171971  0.43929124     0.24930
C1698       C  0.29434009  0.88959443  0.46618100    -0.23180
C1699       C  0.29478246  0.87394501  0.49577727     0.19830
C1700       C  0.28502641  0.84233268  0.49854838     0.24870
C1701       C  0.27440686  0.82543230  0.47201236    -0.23130
C1702       C  0.27559403  0.84020671  0.44227372     0.19770
F1703       F  0.26635261  0.82430720  0.41601204    -0.13080
F1704       F  0.28533246  0.88509907  0.41010381    -0.15450
F1705       F  0.28541342  0.82835898  0.52743902    -0.15450
F1706       F  0.30311654  0.88954727  0.52254201    -0.13090
C1707       C  0.26870819  0.04872939  0.32223220     0.24930
C1708       C  0.28308366  0.02192808  0.33609445    -0.23180
C1709       C  0.28399517  0.99380314  0.31808407     0.19830
C1710       C  0.27078026  0.99241834  0.28761563     0.24870
C1711       C  0.25646145  0.01913571  0.27378793    -0.23130
C1712       C  0.25563730  0.04733281  0.29154805     0.19770
F1713       F  0.24243614  0.07375506  0.27913274    -0.13080
F1714       F  0.26580412  0.07598199  0.33895820    -0.15450
F1715       F  0.27183765  0.96467825  0.27150700    -0.15450
F1716       F  0.29719939  0.96721058  0.33025487    -0.13090
C1717       C  0.13068070  0.15627394  0.50157172     0.24930
C1718       C  0.12931788  0.18116504  0.47933668    -0.23180
C1719       C  0.15633491  0.18852246  0.46168182     0.19830
C1720       C  0.18411155  0.17147659  0.46657908     0.24870
C1721       C  0.18605364  0.14882722  0.49093920    -0.23130
C1722       C  0.15901142  0.14141949  0.50822950     0.19770
F1723       F  0.15926357  0.11775523  0.52974752    -0.13080
F1724       F  0.10440636  0.14572049  0.51666753    -0.15450
F1725       F  0.20860449  0.17620784  0.44664830    -0.15450
F1726       F  0.15596582  0.21196955  0.43976064    -0.13090
C1727       C  0.16152284  0.02134396  0.31047694     0.24930
C1728       C  0.13196380  0.03287846  0.31955489    -0.23180
C1729       C  0.12312363  0.03317297  0.35137941     0.19830
C1730       C  0.14277029  0.02006790  0.37362230     0.24870
C1731       C  0.17316339  0.01002888  0.36490789    -0.23130
C1732       C  0.18234287  0.01004833  0.33322406     0.19770
F1733       F  0.21125965  0.99956028  0.32465024    -0.13080
F1734       F  0.16908582  0.01925346  0.27958273    -0.15450
F1735       F  0.13318325  0.01933507  0.40433996    -0.15450
F1736       F  0.09380897  0.04272959  0.36024199    -0.13090
C1737       C  0.13117350  0.04369329  0.60405407     0.24930
C1738       C  0.13186507  0.02629671  0.63234215    -0.23180
C1739       C  0.16027225  0.01246163  0.64241023     0.19830
C1740       C  0.18771443  0.01698619  0.62474495     0.24870
C1741       C  0.18725250  0.03650802  0.59793833    -0.23130
C1742       C  0.15872853  0.04936403  0.58754987     0.19770
F1743       F  0.15708524  0.06603100  0.56034112    -0.13080
F1744       F  0.10372644  0.05546020  0.59236853    -0.15450
F1745       F  0.21464015  0.00246792  0.63382264    -0.15450
F1746       F  0.16175343  0.99557573  0.66967671    -0.13090
C1747       C  0.74578672  0.17580962  0.52094300     0.24930
C1748       C  0.74247905  0.15671579  0.49361863    -0.23180
C1749       C  0.74764100  0.17125101  0.46389734     0.19830
C1750       C  0.75702597  0.20319225  0.46181573     0.24870
C1751       C  0.76146103  0.22152490  0.48923422    -0.23130
C1752       C  0.75510156  0.20755762  0.51870914     0.19770
F1753       F  0.75794054  0.22470388  0.54566631    -0.13080
F1754       F  0.74055642  0.16376286  0.55024845    -0.15450
F1755       F  0.76216525  0.21611573  0.43289327    -0.15450
F1756       F  0.74493004  0.15434380  0.43674555    -0.13090
C1757       C  0.75454186  0.97022871  0.34044836     0.24930
C1758       C  0.74315133  0.99712479  0.35690800    -0.23180
C1759       C  0.73923202  0.02538020  0.33939780     0.19830
C1760       C  0.74812150  0.02710417  0.30737076     0.24870
C1761       C  0.76110515  0.00076863  0.29173301    -0.23130
C1762       C  0.76368841  0.97219909  0.30846679     0.19770
F1763       F  0.77551204  0.94613570  0.29390097    -0.13080
F1764       F  0.75839480  0.94220569  0.35560534    -0.15450
F1765       F  0.74494347  0.05498368  0.29181425    -0.15450
F1766       F  0.72824729  0.05204876  0.35350427    -0.13090
C1767       C  0.77752281  0.06211420  0.68075045     0.24930
C1768       C  0.77726147  0.03513852  0.70002647    -0.23180
C1769       C  0.76431023  0.00709157  0.68770037     0.19830
C1770       C  0.75241933  0.00592302  0.65659227     0.24870
C1771       C  0.75244910  0.03306958  0.63709943    -0.23130
C1772       C  0.76464331  0.06140709  0.65016391     0.19770
F1773       F  0.76516422  0.08858326  0.63311784    -0.13080
F1774       F  0.78967804  0.08961259  0.69184957    -0.15450
F1775       F  0.74082914  0.97810986  0.64568236    -0.15450
F1776       F  0.76303501  0.98073767  0.70594512    -0.13090
C1777       C  0.75378467  0.86071033  0.52277611     0.24930
C1778       C  0.75131664  0.87685779  0.49362664    -0.23180
C1779       C  0.76199987  0.86081929  0.46611579     0.19830
C1780       C  0.77529968  0.83044997  0.46789368     0.24870
C1781       C  0.77795667  0.81463481  0.49691447    -0.23130
C1782       C  0.76667257  0.83002045  0.52432946     0.19770
F1783       F  0.76746474  0.81518806  0.55273869    -0.13080
F1784       F  0.74421422  0.87468768  0.55007359    -0.15450
F1785       F  0.78520057  0.81610047  0.44089302    -0.15450
F1786       F  0.76024776  0.87461708  0.43717726    -0.13090
C1787       C  0.85849793  0.19573131  0.49132516     0.24930
C1788       C  0.88169001  0.19757355  0.51474404    -0.23180
C1789       C  0.88251011  0.17575382  0.53960074     0.19830
C1790       C  0.86156302  0.15063252  0.53958671     0.24870
C1791       C  0.83936978  0.14800476  0.51527920    -0.23130
C1792       C  0.83725424  0.17097327  0.49165885     0.19770
F1793       F  0.81739629  0.16714795  0.46686867    -0.13080
F1794       F  0.85930815  0.21524633  0.46589926    -0.15450
F1795       F  0.86622039  0.12641882  0.56006954    -0.15450
F1796       F  0.90668715  0.17580713  0.56063404    -0.13090
C1797       C  0.86948005  0.97360035  0.32899690     0.24930
C1798       C  0.90125475  0.96730066  0.33502683    -0.23180
C1799       C  0.91179856  0.96318011  0.36625228     0.19830
C1800       C  0.89130295  0.96858633  0.39140015     0.24870
C1801       C  0.86034812  0.97808668  0.38525855    -0.23130
C1802       C  0.84909709  0.97938186  0.35417053     0.19770
F1803       F  0.81937267  0.98942307  0.34825730    -0.13080
F1804       F  0.85922372  0.97793399  0.29896316    -0.15450
F1805       F  0.90207981  0.96660921  0.42157303    -0.15450
F1806       F  0.94270292  0.95725661  0.37225371    -0.13090
C1807       C  0.86586649  0.03512700  0.67020227     0.24930
C1808       C  0.88249621  0.06357719  0.67389519    -0.23180
C1809       C  0.87300993  0.09041921  0.65688415     0.19830
C1810       C  0.85037482  0.08740825  0.63300521     0.24870
C1811       C  0.83801377  0.05743659  0.62591091    -0.23130
C1812       C  0.84372688  0.03212722  0.64646567     0.19770
F1813       F  0.83027868  0.00343424  0.64148089    -0.13080
F1814       F  0.87480839  0.00866129  0.68597010    -0.15450
F1815       F  0.84318740  0.11280829  0.61487867    -0.15450
F1816       F  0.88862782  0.11813305  0.66017114    -0.13090
C1817       C  0.18136395  0.77557307  0.50527336     0.24930
C1818       C  0.16619229  0.76279622  0.47836760    -0.23180
C1819       C  0.18402706  0.75994463  0.45023726     0.19830
C1820       C  0.21550197  0.77020449  0.44886165     0.24870
C1821       C  0.23047014  0.78290287  0.47567580    -0.23130
C1822       C  0.21305746  0.78533423  0.50390667     0.19770
F1823       F  0.22675546  0.79724370  0.53031594    -0.13080
F1824       F  0.16528688  0.77982060  0.53275813    -0.15450
F1825       F  0.23114129  0.76837387  0.42091618    -0.15450
F1826       F  0.17083460  0.74790635  0.42360839    -0.13090
C1827       C  0.04591576  0.75891399  0.30262278     0.24930
C1828       C  0.01591182  0.76443582  0.28969435    -0.23180
C1829       C  0.98936835  0.75745465  0.30842545     0.19830
C1830       C  0.99269774  0.74640412  0.33971296     0.24870
C1831       C  0.02283998  0.74226066  0.35338330    -0.23130
C1832       C  0.04940402  0.74818718  0.33390787     0.19770
F1833       F  0.07909561  0.74435046  0.34521806    -0.13080
F1834       F  0.07213064  0.76365596  0.28484835    -0.15450
F1835       F  0.96620167  0.74101820  0.35691913    -0.15450
F1836       F  0.95999809  0.76178154  0.29654273    -0.13090
C1837       C  0.05768076  0.77330249  0.68095858     0.24930
C1838       C  0.03334627  0.78982542  0.69665725    -0.23180
C1839       C  0.00521494  0.79541735  0.68021345     0.19830
C1840       C  0.00109785  0.78436901  0.64915445     0.24870
C1841       C  0.02530413  0.76746913  0.63312778    -0.23130
C1842       C  0.05373738  0.76219914  0.64974196     0.19770
F1843       F  0.07806808  0.74665514  0.63575859    -0.13080
F1844       F  0.08552778  0.76811728  0.69583031    -0.15450
F1845       F  0.97332109  0.79104999  0.63471308    -0.15450
F1846       F  0.98119430  0.81114306  0.69455423    -0.13090
C1847       C  0.86888914  0.74302436  0.48111920     0.24930
C1848       C  0.88596157  0.75044283  0.50889025    -0.23180
C1849       C  0.86996027  0.76819744  0.53243035     0.19830
C1850       C  0.83870112  0.77850999  0.52812948     0.24870
C1851       C  0.82183154  0.77119761  0.50042905    -0.23130
C1852       C  0.83756486  0.75345577  0.47690215     0.19770
F1853       F  0.82277473  0.74675048  0.44926804    -0.13080
F1854       F  0.88274903  0.72660182  0.45724675    -0.15450
F1855       F  0.82488955  0.79535859  0.55163260    -0.15450
F1856       F  0.88471382  0.77656760  0.55964075    -0.13090
C1857       C  0.87401825  0.84888476  0.48489751     0.24930
C1858       C  0.89643163  0.85124951  0.50918333    -0.23180
C1859       C  0.89559964  0.87666937  0.53012054     0.19830
C1860       C  0.87578760  0.90194477  0.52405892     0.24870
C1861       C  0.85585046  0.90155123  0.49739985    -0.23130
C1862       C  0.85367492  0.87402950  0.47897698     0.19770
F1863       F  0.83450600  0.87273436  0.45335051    -0.13080
F1864       F  0.87446811  0.82386923  0.46475019    -0.15450
F1865       F  0.87807290  0.92771301  0.54300612    -0.15450
F1866       F  0.91721415  0.87924676  0.55356479    -0.13090
C1867       C  0.16570598  0.85889879  0.43709579     0.24930
C1868       C  0.13357820  0.86576743  0.43454608    -0.23180
C1869       C  0.12344371  0.89731218  0.43194139     0.19830
C1870       C  0.14473706  0.92176680  0.43659842     0.24870
C1871       C  0.17628553  0.91470160  0.44301911    -0.23130
C1872       C  0.18710278  0.88345106  0.44137035     0.19770
F1873       F  0.21765836  0.87662055  0.44737755    -0.13080
F1874       F  0.17569540  0.82860518  0.43964463    -0.15450
F1875       F  0.13428442  0.95213483  0.43696468    -0.15450
F1876       F  0.09227638  0.90421089  0.42911658    -0.13090
C1877       C  0.03994417  0.87690095  0.32448231     0.24930
C1878       C  0.01091056  0.87967071  0.30854858    -0.23180
C1879       C  0.98685258  0.85796379  0.31512997     0.19830
C1880       C  0.99150485  0.83470121  0.33810504     0.24870
C1881       C  0.02041856  0.83277244  0.35448812    -0.23130
C1882       C  0.04471849  0.85370480  0.34689698     0.19770
F1883       F  0.07210497  0.85418342  0.36354322    -0.13080
F1884       F  0.06318191  0.89837864  0.32069916    -0.15450
F1885       F  0.96718101  0.81522865  0.34543898    -0.15450
F1886       F  0.95860074  0.85986666  0.30023271    -0.13090
C1887       C  0.04754330  0.89847713  0.64297880     0.24930
C1888       C  0.02353665  0.92128483  0.64469029    -0.23180
C1889       C  0.99399912  0.91502132  0.63067857     0.19830
C1890       C  0.98971604  0.88813496  0.61253379     0.24870
C1891       C  0.01497533  0.86773197  0.60741815    -0.23130
C1892       C  0.04330871  0.87182526  0.62412053     0.19770
F1893       F  0.06772567  0.85142918  0.61986952    -0.13080
F1894       F  0.07584987  0.90319453  0.65713690    -0.15450
F1895       F  0.96214818  0.88414095  0.59688982    -0.15450
F1896       F  0.96965850  0.93577537  0.63281107    -0.13090
C1897       C  0.76216946  0.18417478  0.96770623     0.24930
C1898       C  0.77554906  0.16990049  0.99493659    -0.23180
C1899       C  0.77738453  0.18819766  0.02279243     0.19830
C1900       C  0.76653536  0.21973208  0.02319421     0.24870
C1901       C  0.75288610  0.23336934  0.99605730    -0.23130
C1902       C  0.75074446  0.21519758  0.96849088     0.19770
F1903       F  0.73789687  0.22774560  0.94190796    -0.13080
F1904       F  0.75916164  0.16795473  0.94015388    -0.15450
F1905       F  0.76934196  0.23695036  0.05012380    -0.15450
F1906       F  0.78977296  0.17571398  0.04960568    -0.13090
C1907       C  0.78431308  0.84039884  0.02098161     0.24930
C1908       C  0.77717170  0.82724836  0.99127884    -0.23180
C1909       C  0.78314196  0.84563521  0.96417851     0.19830
C1910       C  0.79434898  0.87694844  0.96673679     0.24870
C1911       C  0.79970307  0.89092094  0.99663164    -0.23130
C1912       C  0.79515977  0.87171193  0.02367727     0.19770
F1913       F  0.80052797  0.88346399  0.05307177    -0.13080
F1914       F  0.78068377  0.82289472  0.04762699    -0.15450
F1915       F  0.79790987  0.89416940  0.93988452    -0.15450
F1916       F  0.77743592  0.83345150  0.93504455    -0.13090
C1917       C  0.76871959  0.06975747  0.80842025     0.24930
C1918       C  0.77221757  0.04135160  0.79163190    -0.23180
C1919       C  0.78641112  0.01551131  0.80703715     0.19830
C1920       C  0.79661525  0.01789166  0.83858905     0.24870
C1921       C  0.79281175  0.04627748  0.85586864    -0.23130
C1922       C  0.77901494  0.07235754  0.83991966     0.19770
F1923       F  0.77440662  0.10034864  0.85496517    -0.13080
F1924       F  0.75552300  0.09527324  0.79413435    -0.15450
F1925       F  0.80950117  0.99194070  0.85234838    -0.15450
F1926       F  0.78992369  0.98758262  0.79162860    -0.13090
C1927       C  0.78398533  0.03403836  0.15621318     0.24930
C1928       C  0.77764960  0.00871651  0.13533160    -0.23180
C1929       C  0.76059379  0.98261507  0.14768288     0.19830
C1930       C  0.75005268  0.98213291  0.17919927     0.24870
C1931       C  0.75656529  0.00723114  0.19984686    -0.23130
C1932       C  0.77359607  0.03325989  0.18794606     0.19770
F1933       F  0.77974569  0.05831707  0.20699740    -0.13080
F1934       F  0.79983288  0.05992343  0.14594025    -0.15450
F1935       F  0.73377220  0.95661316  0.18969866    -0.15450
F1936       F  0.75307635  0.95754102  0.12914593    -0.13090
C1937       C  0.25945369  0.85836836  0.02023960     0.24930
C1938       C  0.25639074  0.87542718  0.99167422    -0.23180
C1939       C  0.26385882  0.85956667  0.96317232     0.19830
C1940       C  0.27462415  0.82808281  0.96334718     0.24870
C1941       C  0.27834505  0.81146521  0.99192457    -0.23130
C1942       C  0.27023587  0.82688806  0.02031097     0.19770
F1943       F  0.27297898  0.81147331  0.04831237    -0.13080
F1944       F  0.25246168  0.87231135  0.04833097    -0.15450
F1945       F  0.28140575  0.81388551  0.93538333    -0.15450
F1946       F  0.26237016  0.87496650  0.93503950    -0.13090
C1947       C  0.25427537  0.20456812  0.00072084     0.24930
C1948       C  0.25780084  0.22221231  0.97275465    -0.23180
C1949       C  0.25082595  0.20744265  0.94380079     0.19830
C1950       C  0.24233402  0.17535831  0.94259434     0.24870
C1951       C  0.23983720  0.15706832  0.97050678    -0.23130
C1952       C  0.24496876  0.17260916  0.99972887     0.19770
F1953       F  0.24306640  0.15650249  0.02743208    -0.13080
F1954       F  0.26052595  0.21810704  0.02912786    -0.15450
F1955       F  0.23693178  0.16219896  0.91381935    -0.15450
F1956       F  0.25221450  0.22415641  0.91644827    -0.13090
C1957       C  0.24894401  0.04916695  0.81998918     0.24930
C1958       C  0.25190165  0.02116128  0.83804982    -0.23180
C1959       C  0.26670522  0.99488841  0.82355890     0.19830
C1960       C  0.27860820  0.99683487  0.79246266     0.24870
C1961       C  0.27583498  0.02487129  0.77483655    -0.23130
C1962       C  0.26079104  0.05095609  0.78898066     0.19770
F1963       F  0.25759011  0.07840910  0.77268570    -0.13080
F1964       F  0.23480263  0.07520808  0.83237263    -0.15450
F1965       F  0.29280500  0.97113427  0.77948203    -0.15450
F1966       F  0.27098484  0.96757706  0.83984735    -0.13090
C1967       C  0.24489893  0.98246554  0.13701329     0.24930
C1968       C  0.24282406  0.00986393  0.11806907    -0.23180
C1969       C  0.24953041  0.03931761  0.13233799     0.19830
C1970       C  0.25940802  0.04105988  0.16402212     0.24870
C1971       C  0.26238509  0.01359573  0.18246390    -0.23130
C1972       C  0.25428367  0.98437282  0.16883695     0.19770
F1973       F  0.25571693  0.95750322  0.18627503    -0.13080
F1974       F  0.23851396  0.95361536  0.12452025    -0.15450
F1975       F  0.26657392  0.06966718  0.17660578    -0.15450
F1976       F  0.24875560  0.06635509  0.11506728    -0.13090
C1977       C  0.47580962  0.16923750  0.24307632     0.24930
C1978       C  0.50267251  0.15243264  0.25396674    -0.23180
C1979       C  0.53137794  0.16916760  0.25612220     0.19830
C1980       C  0.53317320  0.20121723  0.24738594     0.24870
C1981       C  0.50647455  0.21746852  0.23607043    -0.23130
C1982       C  0.47785247  0.20112000  0.23409169     0.19770
F1983       F  0.45161478  0.21619236  0.22355712    -0.13080
F1984       F  0.44740308  0.15479564  0.24027442    -0.15450
F1985       F  0.56130379  0.21625721  0.24943730    -0.15450
F1986       F  0.55803076  0.15449778  0.26612855    -0.13090
C1987       C  0.54689618  0.85917856  0.24389915     0.24930
C1988       C  0.51938017  0.87306784  0.25724988    -0.23180
C1989       C  0.49157695  0.85468452  0.25709975     0.19830
C1990       C  0.49135738  0.82393843  0.24403573     0.24870
C1991       C  0.51866021  0.81080616  0.23011600    -0.23130
C1992       C  0.54627668  0.82892798  0.23014351     0.19770
F1993       F  0.57316988  0.81695161  0.21741513    -0.13080
F1994       F  0.57462967  0.87511604  0.24312262    -0.15450
F1995       F  0.46438842  0.80678393  0.24523553    -0.15450
F1996       F  0.46437951  0.86643254  0.26935070    -0.13090
C1997       C  0.35501000  0.99042833  0.23781258     0.24930
C1998       C  0.36874653  0.01903759  0.24823667    -0.23180
C1999       C  0.34956403  0.04637738  0.24865722     0.19830
C2000       C  0.31815676  0.04534868  0.23808838     0.24870
C2001       C  0.30493587  0.01706326  0.22662246    -0.23130
C2002       C  0.32363862  0.98954049  0.22701856     0.19770
F2003       F  0.31170326  0.96171906  0.21660107    -0.13080
F2004       F  0.37243198  0.96352578  0.23616993    -0.15450
F2005       F  0.30076233  0.07230649  0.23837575    -0.15450
F2006       F  0.36136054  0.07443073  0.25871950    -0.13090
C2007       C  0.69472258  0.03124471  0.24278804     0.24930
C2008       C  0.71322436  0.00368770  0.24330481    -0.23180
C2009       C  0.69953834  0.97557730  0.25465269     0.19830
C2010       C  0.66784441  0.97486049  0.26446629     0.24870
C2011       C  0.64903351  0.00239752  0.26370069    -0.23130
C2012       C  0.66316710  0.03074119  0.25309974     0.19770
F2013       F  0.64588228  0.05766623  0.25060211    -0.13080
F2014       F  0.70723327  0.05876572  0.23211352    -0.15450
F2015       F  0.65534366  0.94696285  0.27412383    -0.15450
F2016       F  0.71677647  0.94854126  0.25565097    -0.13090
C2017       C  0.39268936  0.01132805  0.09164694     0.24930
C2018       C  0.36020039  0.00707512  0.09589037    -0.23180
C2019       C  0.34649738  0.01177886  0.12563067     0.19830
C2020       C  0.36510485  0.02156116  0.15079750     0.24870
C2021       C  0.39742855  0.02573296  0.14658804    -0.23130
C2022       C  0.41115033  0.02088785  0.11689097     0.19770
F2023       F  0.44227282  0.02614887  0.11223239    -0.13080
F2024       F  0.40610498  0.00774757  0.06264739    -0.15450
F2025       F  0.35154862  0.02843737  0.17879854    -0.15450
F2026       F  0.31493922  0.00918348  0.12959820    -0.13090
C2027       C  0.67987279  0.01033219  0.13382426     0.24930
C2028       C  0.68031676  0.98778409  0.10958555    -0.23180
C2029       C  0.66184317  0.96041450  0.11197256     0.19830
C2030       C  0.63959832  0.95795608  0.13619755     0.24870
C2031       C  0.63641695  0.98272754  0.15800863    -0.23130
C2032       C  0.65805071  0.00772861  0.15808554     0.19770
F2033       F  0.65546412  0.03153176  0.17949205    -0.13080
F2034       F  0.69881067  0.03616070  0.13252801    -0.15450
F2035       F  0.61865681  0.93371673  0.13589036    -0.15450
F2036       F  0.66285077  0.93797363  0.08910524    -0.13090
C2037       C  0.66023529  0.28004954  0.02952838     0.24930
C2038       C  0.64295061  0.29056962  0.00294112    -0.23180
C2039       C  0.65942008  0.29423030  0.97405688     0.19830
C2040       C  0.69153030  0.28643468  0.97161641     0.24870
C2041       C  0.70833616  0.27500573  0.99790576    -0.23130
C2042       C  0.69237457  0.27214987  0.02692843     0.19770
F2043       F  0.70792508  0.26171938  0.05293134    -0.13080
F2044       F  0.64588716  0.27655531  0.05805263    -0.15450
F2045       F  0.70603441  0.28913298  0.94310040    -0.15450
F2046       F  0.64419560  0.30373250  0.94748678    -0.13090
C2047       C  0.34876945  0.28068655  0.94900048     0.24930
C2048       C  0.36261854  0.29144165  0.97758520    -0.23180
C2049       C  0.34352200  0.29099728  0.00505174     0.19830
C2050       C  0.31213848  0.27976131  0.00396521     0.24870
C2051       C  0.29917625  0.26779858  0.97567142    -0.23130
C2052       C  0.31793315  0.26860067  0.94828155     0.19770
F2053       F  0.30638716  0.25767840  0.92045917    -0.13080
F2054       F  0.36541013  0.28047566  0.92153572    -0.15450
F2055       F  0.29451843  0.28005555  0.03079530    -0.15450
F2056       F  0.35523386  0.30109515  0.03313825    -0.13090
C2057       C  0.47650048  0.29547011  0.83110123     0.24930
C2058       C  0.50326363  0.30435366  0.84901314    -0.23180
C2059       C  0.53281395  0.30409635  0.83344112     0.19830
C2060       C  0.53555363  0.29400690  0.80173526     0.24870
C2061       C  0.50906075  0.28324148  0.78488085    -0.23130
C2062       C  0.47952199  0.28450103  0.79987810     0.19770
F2063       F  0.45327597  0.27502318  0.78430671    -0.13080
F2064       F  0.44721685  0.29581596  0.84411012    -0.15450
F2065       F  0.56431877  0.29418314  0.78763511    -0.15450
F2066       F  0.55932424  0.31293069  0.84900710    -0.13090
C2067       C  0.48714622  0.28999861  0.14777427     0.24930
C2068       C  0.51241200  0.27995570  0.12836194    -0.23180
C2069       C  0.53562071  0.26018371  0.14228276     0.19830
C2070       C  0.53356194  0.25085561  0.17401433     0.24870
C2071       C  0.50863645  0.26112289  0.19331435    -0.23130
C2072       C  0.48525568  0.28060332  0.17973502     0.19770
F2073       F  0.46005177  0.28993144  0.19724717    -0.13080
F2074       F  0.46386059  0.30848173  0.13582270    -0.15450
F2075       F  0.55645403  0.23190356  0.18595812    -0.15450
F2076       F  0.56020495  0.24876286  0.12509384    -0.13090
C2077       C  0.53624855  0.16461325  0.11549804     0.24930
C2078       C  0.50837967  0.17877891  0.10500029    -0.23180
C2079       C  0.48055431  0.17536277  0.12281971     0.19830
C2080       C  0.47991560  0.15536287  0.14904364     0.24870
C2081       C  0.50716193  0.13854994  0.15776555    -0.23130
C2082       C  0.53577266  0.14490497  0.14176751     0.19770
F2083       F  0.56312004  0.13044183  0.14989537    -0.13080
F2084       F  0.56353770  0.16785186  0.09894024    -0.15450
F2085       F  0.45235980  0.15153220  0.16496451    -0.15450
F2086       F  0.45377899  0.19082493  0.11437824    -0.13090
C2087       C  0.35232288  0.19845368  0.96965330     0.24930
C2088       C  0.37770471  0.20065945  0.94863384    -0.23180
C2089       C  0.38206045  0.17773977  0.92494963     0.19830
C2090       C  0.36197602  0.15182006  0.92357105     0.24870
C2091       C  0.33718340  0.14932261  0.94531430    -0.23130
C2092       C  0.33222465  0.17290223  0.96796709     0.19770
F2093       F  0.31109548  0.16854192  0.99158547    -0.13080
F2094       F  0.34936243  0.21879590  0.99429402    -0.15450
F2095       F  0.36975716  0.12704403  0.90472278    -0.15450
F2096       F  0.40840293  0.17782424  0.90661835    -0.13090
C2097       C  0.64734487  0.18544209  0.01354567     0.24930
C2098       C  0.62043787  0.17627363  0.99648729    -0.23180
C2099       C  0.62214882  0.14964375  0.97651695     0.19830
C2100       C  0.65048384  0.13385327  0.97210007     0.24870
C2101       C  0.67759041  0.14373174  0.98799545    -0.23130
C2102       C  0.67576750  0.16902153  0.00949295     0.19770
F2103       F  0.70142862  0.17769592  0.02650400    -0.13080
F2104       F  0.64631127  0.21043554  0.03360603    -0.15450
F2105       F  0.65094387  0.10760025  0.95369481    -0.15450
F2106       F  0.59616662  0.13850926  0.96144772    -0.13090
C2107       C  0.68329194  0.05966569  0.72004230     0.24930
C2108       C  0.66589446  0.03175287  0.72561656    -0.23180
C2109       C  0.68121889  0.00696610  0.74223249     0.19830
C2110       C  0.71203656  0.01039163  0.75365174     0.24870
C2111       C  0.72911618  0.03815420  0.74819773    -0.23130
C2112       C  0.71443709  0.06278369  0.73120817     0.19770
F2113       F  0.73020836  0.09010059  0.72565877    -0.13080
F2114       F  0.67016583  0.08422242  0.70412464    -0.15450
F2115       F  0.72550964  0.98605325  0.76961765    -0.15450
F2116       F  0.66632759  0.97921621  0.74815722    -0.13090
C2117       C  0.33737878  0.00203489  0.72046166     0.24930
C2118       C  0.32058825  0.02804944  0.73281779    -0.23180
C2119       C  0.33626114  0.05712432  0.73522245     0.19830
C2120       C  0.36777829  0.06033798  0.72545005     0.24870
C2121       C  0.38527608  0.03410622  0.71395163    -0.23130
C2122       C  0.36934494  0.00488888  0.71148577     0.19770
F2123       F  0.38464394  0.97892466  0.70043084    -0.13080
F2124       F  0.32285156  0.97367938  0.71726979    -0.15450
F2125       F  0.38132925  0.08921803  0.72848461    -0.15450
F2126       F  0.32087075  0.08277174  0.74689304    -0.13090
C2127       C  0.54156502  0.19157360  0.72725641     0.24930
C2128       C  0.51369056  0.17583918  0.71783752    -0.23180
C2129       C  0.48504661  0.19292454  0.71972770     0.19830
C2130       C  0.48420897  0.22400409  0.73149649     0.24870
C2131       C  0.51185853  0.23911138  0.74180163    -0.23130
C2132       C  0.54055260  0.22266199  0.73913619     0.19770
F2133       F  0.56776518  0.23665254  0.74843222    -0.13080
F2134       F  0.56983750  0.17650906  0.72651589    -0.15450
F2135       F  0.45621547  0.23950232  0.73236136    -0.15450
F2136       F  0.45750402  0.17951036  0.71053979    -0.13090
C2137       C  0.56574172  0.84493464  0.73070873     0.24930
C2138       C  0.53624377  0.83007275  0.73448484    -0.23180
C2139       C  0.50892805  0.84818925  0.72951549     0.19830
C2140       C  0.51087329  0.88045808  0.72186322     0.24870
C2141       C  0.54036154  0.89586732  0.71936728    -0.23130
C2142       C  0.56778431  0.87746465  0.72371948     0.19770
F2143       F  0.59668979  0.89098468  0.72142880    -0.13080
F2144       F  0.59274434  0.82804084  0.73365358    -0.15450
F2145       F  0.48357929  0.89697804  0.71883360    -0.15450
F2146       F  0.48009509  0.83473086  0.73277625    -0.13090
C2147       C  0.45682638  0.17930189  0.81221001     0.24930
C2148       C  0.48683128  0.17086551  0.80082351    -0.23180
C2149       C  0.51281803  0.19028984  0.80729835     0.19830
C2150       C  0.50990382  0.21465720  0.82881437     0.24870
C2151       C  0.48142989  0.21878669  0.84517984    -0.23130
C2152       C  0.45413424  0.20336646  0.83469706     0.19770
F2153       F  0.42614105  0.20796248  0.84961802    -0.13080
F2154       F  0.43123675  0.16132524  0.80551359    -0.15450
F2155       F  0.53629001  0.23042074  0.83779213    -0.15450
F2156       F  0.54207168  0.18291569  0.79643381    -0.13090
C2157       C  0.37607914  0.07847057  0.81671209     0.24930
C2158       C  0.38750851  0.05131332  0.80145855    -0.23180
C2159       C  0.37156858  0.02247920  0.80489309     0.19830
C2160       C  0.34871459  0.01933464  0.82806635     0.24870
C2161       C  0.34030322  0.04547226  0.84661867    -0.23130
C2162       C  0.35184957  0.07560983  0.83888601     0.19770
F2163       F  0.34273780  0.10143906  0.85558168    -0.13080
F2164       F  0.39101462  0.10663469  0.81347118    -0.15450
F2165       F  0.33736406  0.99008975  0.83467196    -0.15450
F2166       F  0.38106899  0.99637168  0.78872305    -0.13090
C2167       C  0.66551008  0.01247722  0.83267107     0.24930
C2168       C  0.63903265  0.03198057  0.83720360    -0.23180
C2169       C  0.64060746  0.05654313  0.85993560     0.19830
C2170       C  0.66843736  0.06301689  0.87550060     0.24870
C2171       C  0.69494082  0.04403734  0.87057172    -0.23130
C2172       C  0.69330527  0.01847344  0.84929096     0.19770
F2173       F  0.71850039  0.99911903  0.84486740    -0.13080
F2174       F  0.66448154  0.98744592  0.81266504    -0.15450
F2175       F  0.66871134  0.08686041  0.89697129    -0.15450
F2176       F  0.61512645  0.07449708  0.86771156    -0.13090
C2177       C  0.37150820  0.75566436  0.96345980     0.24930
C2178       C  0.38779271  0.75079641  0.99218737    -0.23180
C2179       C  0.37049779  0.75417491  0.02068406     0.19830
C2180       C  0.33860452  0.76318967  0.02044727     0.24870
C2181       C  0.32281396  0.76905013  0.99186747    -0.23130
C2182       C  0.33950528  0.76464379  0.96335096     0.19770
F2183       F  0.32492883  0.76912637  0.93519475    -0.13080
F2184       F  0.38683426  0.75328483  0.93533233    -0.15450
F2185       F  0.32311963  0.76645535  0.04838613    -0.15450
F2186       F  0.38460673  0.74946756  0.04910425    -0.13090
C2187       C  0.68082015  0.77488002  0.00870038     0.24930
C2188       C  0.66955060  0.76059309  0.98062887    -0.23180
C2189       C  0.69050658  0.75883459  0.95466738     0.19830
C2190       C  0.72151356  0.77060706  0.95679356     0.24870
C2191       C  0.73275799  0.78452709  0.98490502    -0.23130
C2192       C  0.71179842  0.78681531  0.01068157     0.19770
F2193       F  0.72141385  0.80017692  0.03817301    -0.13080
F2194       F  0.66147101  0.77853506  0.03406372    -0.15450
F2195       F  0.74063249  0.76859735  0.93109512    -0.15450
F2196       F  0.68098045  0.74577006  0.92696466    -0.13090
C2197       C  0.48965612  0.75551256  0.13780498     0.24930
C2198       C  0.51707773  0.74468700  0.12175958    -0.23180
C2199       C  0.54568445  0.74492556  0.13893732     0.19830
C2200       C  0.54678144  0.75585214  0.17050628     0.24870
C2201       C  0.51955594  0.76743890  0.18581324    -0.23130
C2202       C  0.49105668  0.76704403  0.16901714     0.19770
F2203       F  0.46421091  0.77760544  0.18301543    -0.13080
F2204       F  0.46124049  0.75590636  0.12309582    -0.15450
F2205       F  0.57470844  0.75544413  0.18609424    -0.15450
F2206       F  0.57298812  0.73553305  0.12500080    -0.13090
C2207       C  0.50691888  0.76941546  0.82581450     0.24930
C2208       C  0.53583622  0.76460618  0.84175172    -0.23180
C2209       C  0.56393552  0.77041522  0.82456033     0.19830
C2210       C  0.56311181  0.78105288  0.79309312     0.24870
C2211       C  0.53432342  0.78641709  0.77760365    -0.23130
C2212       C  0.50625331  0.78020362  0.79427161     0.19770
F2213       F  0.47799627  0.78470111  0.77996411    -0.13080
F2214       F  0.47906793  0.76454633  0.84087816    -0.15450
F2215       F  0.59075507  0.78544326  0.77759942    -0.15450
F2216       F  0.59259644  0.76608492  0.83812914    -0.13090
C2217       C  0.53259199  0.86428332  0.84039805     0.24930
C2218       C  0.55709325  0.86205468  0.86251089    -0.23180
C2219       C  0.58049409  0.88537938  0.86370056     0.19830
C2220       C  0.57746480  0.91245631  0.84515462     0.24870
C2221       C  0.55092631  0.91612896  0.82569389    -0.23130
C2222       C  0.52949068  0.89129523  0.82204103     0.19770
F2223       F  0.50474863  0.89392760  0.80186086    -0.13080
F2224       F  0.50987718  0.84177836  0.83907977    -0.15450
F2225       F  0.59869124  0.93623609  0.84838026    -0.15450
F2226       F  0.60390854  0.88375693  0.88551820    -0.13090
C2227       C  0.49094482  0.84213090  0.13674394     0.24930
C2228       C  0.51885185  0.83333517  0.12142747    -0.23180
C2229       C  0.54812640  0.84055782  0.13536114     0.19830
C2230       C  0.54959425  0.86363208  0.15861187     0.24870
C2231       C  0.52160812  0.87784903  0.16882878    -0.23130
C2232       C  0.49241948  0.86403944  0.16111832     0.19770
F2233       F  0.46512260  0.87521335  0.17376642    -0.13080
F2234       F  0.46236426  0.83343114  0.12529700    -0.15450
F2235       F  0.57813312  0.87508586  0.16745208    -0.15450
F2236       F  0.57544368  0.82881975  0.12330462    -0.13090
C2237       C  0.39120343  0.86448281  0.02891850     0.24930
C2238       C  0.42255085  0.87379240  0.02405330    -0.23180
C2239       C  0.42989764  0.90591335  0.02014979     0.19830
C2240       C  0.40588686  0.92786549  0.01645534     0.24870
C2241       C  0.37443700  0.91790286  0.01719836    -0.23130
C2242       C  0.36706112  0.88664598  0.02559508     0.19770
F2243       F  0.33661909  0.87690869  0.02719729    -0.13080
F2244       F  0.38378174  0.83353703  0.03296579    -0.15450
F2245       F  0.41329888  0.95845622  0.01016975    -0.15450
F2246       F  0.46029739  0.91546018  0.01687679    -0.13090
C2247       C  0.64566890  0.87560368  0.00132044     0.24930
C2248       C  0.65081452  0.85260600  0.97804838    -0.23180
C2249       C  0.67871269  0.85262106  0.96039503     0.19830
C2250       C  0.70117870  0.87586155  0.96633410     0.24870
C2251       C  0.69617493  0.89780058  0.99082646    -0.23130
C2252       C  0.66845661  0.89741731  0.00833807     0.19770
F2253       F  0.66139388  0.92118233  0.02879631    -0.13080
F2254       F  0.61728588  0.87898761  0.01521967    -0.15450
F2255       F  0.72621010  0.87884147  0.94662334    -0.15450
F2256       F  0.68353438  0.83125474  0.93693470    -0.13090
C2257       C  0.83957287  0.77914152  0.02044543     0.24930
C2258       C  0.82436436  0.77846400  0.99101233    -0.23180
C2259       C  0.84096900  0.79010884  0.96450327     0.19830
C2260       C  0.87214455  0.80154994  0.96727909     0.24870
C2261       C  0.88768914  0.80208456  0.99682906    -0.23130
C2262       C  0.87045069  0.79091334  0.02345106     0.19770
F2263       F  0.88353442  0.79074055  0.05274068    -0.13080
F2264       F  0.82422712  0.76880245  0.04667377    -0.15450
F2265       F  0.88731246  0.81125946  0.94072165    -0.15450
F2266       F  0.82705475  0.79016600  0.93564482    -0.13090
C2267       C  0.21618080  0.77001688  0.96702863     0.24930
C2268       C  0.23143023  0.76222120  0.99540304    -0.23180
C2269       C  0.21443839  0.76584590  0.02391090     0.19830
C2270       C  0.18273923  0.77613054  0.02389112     0.24870
C2271       C  0.16718305  0.78364590  0.99532878    -0.23130
C2272       C  0.18482738  0.78077183  0.96689785     0.19770
F2273       F  0.17175524  0.78785957  0.93847494    -0.13080
F2274       F  0.23183344  0.76733758  0.93911200    -0.15450
F2275       F  0.16732466  0.77847480  0.05196356    -0.15450
F2276       F  0.22862981  0.76011819  0.05202445    -0.13090
C2277       C  0.01156213  0.79202403  0.83961282     0.24930
C2278       C  0.04035319  0.79982568  0.85450171    -0.23180
C2279       C  0.06775817  0.80074356  0.83547812     0.19830
C2280       C  0.06644650  0.79355382  0.80289734     0.24870
C2281       C  0.03797166  0.78415467  0.78865743    -0.23130
C2282       C  0.01057304  0.78374381  0.80737773     0.19770
F2283       F  0.98270576  0.77472549  0.79452049    -0.13080
F2284       F  0.98448603  0.79008011  0.85668606    -0.15450
F2285       F  0.09319120  0.79529208  0.78532902    -0.15450
F2286       F  0.09596515  0.80844646  0.84843032    -0.13090
C2287       C  0.98019789  0.77558929  0.15006299     0.24930
C2288       C  0.00828943  0.78566828  0.13498389    -0.23180
C2289       C  0.03659926  0.78354631  0.15253759     0.19830
C2290       C  0.03678308  0.77125355  0.18347851     0.24870
C2291       C  0.00880119  0.76093918  0.19811035    -0.23130
C2292       C  0.98052599  0.76342589  0.18102544     0.19770
F2293       F  0.95287161  0.75462958  0.19444380    -0.13080
F2294       F  0.95213209  0.77699266  0.13475811    -0.15450
F2295       F  0.06457008  0.76923873  0.19921655    -0.15450
F2296       F  0.06454383  0.79220448  0.13950399    -0.13090
C2297       C  0.81081215  0.27123283  0.95578607     0.24930
C2298       C  0.79902271  0.28226111  0.98497586    -0.23180
C2299       C  0.81961310  0.28263879  0.01103681     0.19830
C2300       C  0.85119581  0.27256996  0.00801962     0.24870
C2301       C  0.86339317  0.26222942  0.97863605    -0.23130
C2302       C  0.84258257  0.26171492  0.95254744     0.19770
F2303       F  0.85308138  0.25223260  0.92369749    -0.13080
F2304       F  0.79156846  0.26986621  0.93022189    -0.15450
F2305       F  0.87032203  0.27459061  0.03363824    -0.15450
F2306       F  0.80909108  0.29281012  0.03962830    -0.13090
C2307       C  0.01790868  0.26318984  0.82097882     0.24930
C2308       C  0.98843275  0.26445176  0.83673889    -0.23180
C2309       C  0.96274493  0.27799580  0.82030555     0.19830
C2310       C  0.96657467  0.29030835  0.78963325     0.24870
C2311       C  0.99604233  0.28937932  0.77440962    -0.23130
C2312       C  0.02166880  0.27587816  0.79055639     0.19770
F2313       F  0.05062953  0.27514867  0.77686864    -0.13080
F2314       F  0.04375984  0.25094302  0.83538579    -0.15450
F2315       F  0.94122486  0.30276911  0.77457431    -0.15450
F2316       F  0.93386201  0.27992355  0.83406173    -0.13090
C2317       C  0.15836166  0.25513188  0.94425194     0.24930
C2318       C  0.14382398  0.24507561  0.97266545    -0.23180
C2319       C  0.16230907  0.24562882  0.00056029     0.19830
C2320       C  0.19331710  0.25709970  0.00029802     0.24870
C2321       C  0.20734064  0.26791181  0.97221515    -0.23130
C2322       C  0.18972345  0.26628343  0.94408842     0.19770
F2323       F  0.20280254  0.27586198  0.91638748    -0.13080
F2324       F  0.14196881  0.25538993  0.91671466    -0.15450
F2325       F  0.20959499  0.25800674  0.02787588    -0.15450
F2326       F  0.15023105  0.23588086  0.02867511    -0.13090
C2327       C  0.99267194  0.24265258  0.13502583     0.24930
C2328       C  0.01996659  0.24689127  0.11626689    -0.23180
C2329       C  0.04706931  0.25946699  0.13115001     0.19830
C2330       C  0.04639010  0.26889294  0.16294139     0.24870
C2331       C  0.01922808  0.26478041  0.18143476    -0.23130
C2332       C  0.99245705  0.25118355  0.16726936     0.19770
F2333       F  0.96578857  0.24685818  0.18451480    -0.13080
F2334       F  0.96599328  0.23054480  0.12218910    -0.15450
F2335       F  0.07270507  0.28166290  0.17588912    -0.15450
F2336       F  0.07429566  0.26370412  0.11480411    -0.13090
C2337       C  0.82863661  0.53888277  0.23218466     0.24930
C2338       C  0.81159794  0.51074036  0.23600575    -0.23180
C2339       C  0.82716386  0.48491084  0.25038080     0.19830
C2340       C  0.85868121  0.48735483  0.26095789     0.24870
C2341       C  0.87575136  0.51582277  0.25762990    -0.23130
C2342       C  0.85984156  0.54158896  0.24304859     0.19770
F2343       F  0.87457800  0.56965881  0.23835972    -0.13080
F2344       F  0.81480742  0.56438276  0.21855528    -0.15450
F2345       F  0.87249816  0.46158794  0.27412857    -0.15450
F2346       F  0.81185005  0.45700279  0.25393566    -0.13090
C2347       C  0.17670168  0.48714276  0.25320522     0.24930
C2348       C  0.15679593  0.51388273  0.25070020    -0.23180
C2349       C  0.17036667  0.54247952  0.24008969     0.19830
C2350       C  0.20240674  0.54392284  0.23129686     0.24870
C2351       C  0.22183668  0.51696969  0.23296592    -0.23130
C2352       C  0.20866536  0.48869692  0.24440170     0.19770
F2353       F  0.22666948  0.46225312  0.24654499    -0.13080
F2354       F  0.16510847  0.45910802  0.26359687    -0.15450
F2355       F  0.21442738  0.57172883  0.22085192    -0.15450
F2356       F  0.15231756  0.56877098  0.23660475    -0.13090
C2357       C  0.97532133  0.67138917  0.25787310     0.24930
C2358       C  0.00273119  0.65278891  0.26145356    -0.23180
C2359       C  0.03221771  0.66743359  0.25580498     0.19830
C2360       C  0.03401631  0.69903677  0.24575709     0.24870
C2361       C  0.00659946  0.71711681  0.24137400    -0.23130
C2362       C  0.97728378  0.70315559  0.24828379     0.19770
F2363       F  0.95035714  0.72028794  0.24589539    -0.13080
F2364       F  0.94641803  0.65871593  0.26317080    -0.15450
F2365       F  0.06271526  0.71192310  0.23991124    -0.15450
F2366       F  0.05948242  0.65074777  0.25808188    -0.13090
C2367       C  0.99855066  0.36072998  0.22798112     0.24930
C2368       C  0.02617335  0.37320743  0.24183400    -0.23180
C2369       C  0.05203879  0.35275174  0.24622899     0.19830
C2370       C  0.05012044  0.32067930  0.23756544     0.24870
C2371       C  0.02243715  0.30834035  0.22395728    -0.23130
C2372       C  0.99685464  0.32882201  0.21897734     0.19770
F2373       F  0.96996577  0.31780480  0.20559175    -0.13080
F2374       F  0.97344364  0.37972120  0.22189168    -0.15450
F2375       F  0.07553607  0.30171149  0.24208045    -0.15450
F2376       F  0.07917050  0.36374096  0.25910749    -0.13090
C2377       C  0.01911877  0.39444380  0.12144865     0.24930
C2378       C  0.04194398  0.39533620  0.14515735    -0.23180
C2379       C  0.06666460  0.37302743  0.14487848     0.19830
C2380       C  0.06720684  0.34911985  0.12169407     0.24870
C2381       C  0.04279782  0.34744806  0.09925745    -0.23130
C2382       C  0.01949586  0.37094465  0.09916577     0.19770
F2383       F  0.99671713  0.37174094  0.07706817    -0.13080
F2384       F  0.99623560  0.41677805  0.11928031    -0.15450
F2385       F  0.09078977  0.32743700  0.12173683    -0.15450
F2386       F  0.08948267  0.37383013  0.16731427    -0.13090
C2387       C  0.00479248  0.66456878  0.15905825     0.24930
C2388       C  0.97984401  0.64281647  0.15910490    -0.23180
C2389       C  0.95416802  0.64734340  0.13873906     0.19830
C2390       C  0.95569288  0.67071002  0.11538480     0.24870
C2391       C  0.98303041  0.68910100  0.11238698    -0.23130
C2392       C  0.00648014  0.68750349  0.13565016     0.19770
F2393       F  0.03248496  0.70611301  0.13381827    -0.13080
F2394       F  0.02938888  0.66108546  0.17929310    -0.15450
F2395       F  0.93233919  0.67279062  0.09362229    -0.15450
F2396       F  0.92972112  0.62674185  0.13878002    -0.13090
C2397       C  0.27409950  0.53866472  0.83127151     0.24930
C2398       C  0.27946199  0.50890447  0.84543064    -0.23180
C2399       C  0.27704427  0.48174189  0.82621346     0.19830
C2400       C  0.26932815  0.48430369  0.79393863     0.24870
C2401       C  0.26310449  0.51395921  0.78020053    -0.23130
C2402       C  0.26578956  0.54109076  0.79919480     0.19770
F2403       F  0.26032702  0.57011468  0.78673133    -0.13080
F2404       F  0.27515283  0.56549213  0.84888060    -0.15450
F2405       F  0.26760785  0.45768746  0.77610038    -0.15450
F2406       F  0.28177446  0.45259471  0.83877229    -0.13090
C2407       C  0.28911999  0.54623488  0.14585605     0.24930
C2408       C  0.28819129  0.51843057  0.12724962    -0.23180
C2409       C  0.27858312  0.49007176  0.14223420     0.19830
C2410       C  0.26865447  0.49004284  0.17411830     0.24870
C2411       C  0.26758306  0.51835480  0.19164501    -0.23130
C2412       C  0.27860616  0.54621719  0.17730892     0.19770
F2413       F  0.27793749  0.57394075  0.19346460    -0.13080
F2414       F  0.29890388  0.57409109  0.13332689    -0.15450
F2415       F  0.25850819  0.46265806  0.18732051    -0.15450
F2416       F  0.27673357  0.46267254  0.12563207    -0.13090
C2417       C  0.28989637  0.67156621  0.02423588     0.24930
C2418       C  0.29724145  0.65520545  0.99584400    -0.23180
C2419       C  0.29540428  0.67246366  0.96727425     0.19830
C2420       C  0.28501258  0.70416305  0.96703241     0.24870
C2421       C  0.27613767  0.71962508  0.99521776    -0.23130
C2422       C  0.27956953  0.70314532  0.02382580     0.19770
F2423       F  0.27312155  0.71763851  0.05170887    -0.13080
F2424       F  0.29145564  0.65679607  0.05269998    -0.15450
F2425       F  0.28256360  0.71945758  0.93894037    -0.15450
F2426       F  0.30237951  0.65840405  0.93924705    -0.13090
C2427       C  0.25503631  0.36341627  0.99931225     0.24930
C2428       C  0.26895278  0.37737341  0.97239161    -0.23180
C2429       C  0.27201761  0.35895983  0.94478288     0.19830
C2430       C  0.26205430  0.32727680  0.94434945     0.24870
C2431       C  0.24850363  0.31332319  0.97139109    -0.23130
C2432       C  0.24484114  0.33185980  0.99874913     0.19770
F2433       F  0.23163559  0.31933462  0.02515874    -0.13080
F2434       F  0.24982039  0.38081960  0.02582019    -0.15450
F2435       F  0.26549530  0.31019630  0.91738324    -0.15450
F2436       F  0.28464242  0.37168728  0.91815598    -0.13090
C2437       C  0.16622563  0.50973559  0.15380340     0.24930
C2438       C  0.13615805  0.51015337  0.14065416    -0.23180
C2439       C  0.13172220  0.52368598  0.11044591     0.19830
C2440       C  0.15655490  0.53851990  0.09498957     0.24870
C2441       C  0.18669516  0.53781993  0.10805267    -0.23130
C2442       C  0.19109343  0.52386392  0.13760782     0.19770
F2443       F  0.21955985  0.52481308  0.15095022    -0.13080
F2444       F  0.17118696  0.49692982  0.18269015    -0.15450
F2445       F  0.15120744  0.55356925  0.06726102    -0.15450
F2446       F  0.10274706  0.52405283  0.09678298    -0.13090
C2447       C  0.17100130  0.37755742  0.95548291     0.24930
C2448       C  0.16703559  0.40128532  0.97852754    -0.23180
C2449       C  0.14642206  0.39560660  0.00424855     0.19830
C2450       C  0.13108781  0.36697882  0.00735232     0.24870
C2451       C  0.13420720  0.34383434  0.98396640    -0.23130
C2452       C  0.15402008  0.34934018  0.95780559     0.19770
F2453       F  0.15609043  0.32792809  0.93400113    -0.13080
F2454       F  0.19067647  0.38175568  0.93046821    -0.15450
F2455       F  0.11060776  0.36327758  0.03184178    -0.15450
F2456       F  0.13973971  0.41815279  0.02612599    -0.13090
C2457       C  0.17604408  0.64647287  0.01883069     0.24930
C2458       C  0.20251165  0.64999899  0.99970297    -0.23180
C2459       C  0.20186924  0.67155111  0.97425538     0.19830
C2460       C  0.17533510  0.69056542  0.96911438     0.24870
C2461       C  0.14854969  0.68667609  0.98820360    -0.23130
C2462       C  0.14902541  0.66322200  0.01227125     0.19770
F2463       F  0.12282765  0.65472592  0.02875887    -0.13080
F2464       F  0.17485905  0.62389259  0.04168676    -0.15450
F2465       F  0.17535856  0.71138744  0.94471366    -0.15450
F2466       F  0.22613284  0.67295583  0.95342792    -0.13090
C2467       C  0.18000711  0.55495181  0.71583677     0.24930
C2468       C  0.15955110  0.52886364  0.71155311    -0.23180
C2469       C  0.17214262  0.49835945  0.71715789     0.19830
C2470       C  0.20326146  0.49437894  0.72834967     0.24870
C2471       C  0.22274282  0.52063375  0.73424778    -0.23130
C2472       C  0.21099753  0.55082007  0.72686744     0.19770
F2473       F  0.22960422  0.57661326  0.73047275    -0.13080
F2474       F  0.16996187  0.58487515  0.71004138    -0.15450
F2475       F  0.21386582  0.46479239  0.73471827    -0.15450
F2476       F  0.15390306  0.47228276  0.71362098    -0.13090
C2477       C  0.97144480  0.34756183  0.71836408     0.24930
C2478       C  0.99831787  0.33321115  0.73174281    -0.23180
C2479       C  0.02554459  0.35153636  0.73581052     0.19830
C2480       C  0.02604479  0.38343810  0.72681195     0.24870
C2481       C  0.99909080  0.39812585  0.71382228    -0.23130
C2482       C  0.97170400  0.37978216  0.70985995     0.19770
F2483       F  0.94515415  0.39309207  0.69789379    -0.13080
F2484       F  0.94476885  0.33051947  0.71395580    -0.15450
F2485       F  0.05251608  0.40046970  0.73260778    -0.15450
F2486       F  0.05179720  0.33850488  0.74873029    -0.13090
C2487       C  0.00808767  0.72781743  0.73131676     0.24930
C2488       C  0.03534473  0.74128265  0.74468196    -0.23180
C2489       C  0.06287227  0.72284290  0.74580071     0.19830
C2490       C  0.06340756  0.69192270  0.73360585     0.24870
C2491       C  0.03595135  0.67785438  0.72076745    -0.23130
C2492       C  0.00828924  0.69656919  0.71968259     0.19770
F2493       F  0.98116408  0.68464932  0.70764254    -0.13080
F2494       F  0.98108129  0.74498083  0.72963480    -0.15450
F2495       F  0.09089742  0.67556725  0.73539456    -0.15450
F2496       F  0.08969967  0.73502586  0.75821050    -0.13090
C2497       C  0.85923168  0.51160971  0.71590923     0.24930
C2498       C  0.87848731  0.53884957  0.71656643    -0.23180
C2499       C  0.86520897  0.56693083  0.72892877     0.19830
C2500       C  0.83419143  0.56739795  0.74113745     0.24870
C2501       C  0.81539834  0.53993497  0.74110839    -0.23130
C2502       C  0.82829541  0.51217680  0.72796583     0.19770
F2503       F  0.81087468  0.48531679  0.72702564    -0.13080
F2504       F  0.87061201  0.48397964  0.70413412    -0.15450
F2505       F  0.82255252  0.59484531  0.75296774    -0.15450
F2506       F  0.88285337  0.59357286  0.73106627    -0.13090
C2507       C  0.16269698  0.51258115  0.81309360     0.24930
C2508       C  0.13864225  0.53537526  0.81357763    -0.23180
C2509       C  0.12837383  0.54796714  0.84239985     0.19830
C2510       C  0.14156195  0.53741246  0.87035823     0.24870
C2511       C  0.16742496  0.51652515  0.86973817    -0.23130
C2512       C  0.17781092  0.50389141  0.84094732     0.19770
F2513       F  0.20308834  0.48421657  0.83962207    -0.13080
F2514       F  0.17145897  0.49873397  0.78569569    -0.15450
F2515       F  0.12959845  0.54829131  0.89818923    -0.15450
F2516       F  0.10446245  0.56926055  0.84376977    -0.13090
C2517       C  0.96309375  0.37749658  0.84699059     0.24930
C2518       C  0.97402834  0.38308045  0.87780362    -0.23180
C2519       C  0.98256438  0.41366722  0.88712916     0.19830
C2520       C  0.98449133  0.43747538  0.86480501     0.24870
C2521       C  0.97790119  0.43082889  0.83301246    -0.23130
C2522       C  0.96509925  0.40148851  0.82442451     0.19770
F2523       F  0.95757720  0.39516443  0.79385713    -0.13080
F2524       F  0.95356226  0.34825108  0.83806791    -0.15450
F2525       F  0.99482134  0.46649773  0.87380406    -0.15450
F2526       F  0.99126860  0.41983328  0.91743281    -0.13090
C2527       C  0.08823803  0.66524360  0.83038255     0.24930
C2528       C  0.06236275  0.66361652  0.80982286    -0.23180
C2529       C  0.03783816  0.68573380  0.81240103     0.19830
C2530       C  0.03669630  0.70602396  0.83799000     0.24870
C2531       C  0.06055561  0.70517225  0.86083350    -0.23130
C2532       C  0.08744054  0.68629294  0.85590742     0.19770
F2533       F  0.11058632  0.68493947  0.87801771    -0.13080
F2534       F  0.11175210  0.64348886  0.82857692    -0.15450
F2535       F  0.01019005  0.72340565  0.84263030    -0.15450
F2536       F  0.01248816  0.68427314  0.79288089    -0.13090
C2537       C  0.73530579  0.37075616  0.01874328     0.24930
C2538       C  0.73536222  0.38963353  0.99111008    -0.23180
C2539       C  0.74292604  0.37463480  0.96210346     0.19830
C2540       C  0.75199862  0.34248268  0.96126732     0.24870
C2541       C  0.75433005  0.32470454  0.98937043    -0.23130
C2542       C  0.74489854  0.33900991  0.01786944     0.19770
F2543       F  0.74557998  0.32227877  0.04525322    -0.13080
F2544       F  0.72683043  0.38319597  0.04713371    -0.15450
F2545       F  0.76040798  0.32932612  0.93320312    -0.15450
F2546       F  0.74392865  0.39148381  0.93479734    -0.13090
C2547       C  0.76416396  0.72091416  0.01365535     0.24930
C2548       C  0.78000517  0.73524224  0.98799011    -0.23180
C2549       C  0.78257803  0.71799870  0.95975505     0.19830
C2550       C  0.76966546  0.68749841  0.95698833     0.24870
C2551       C  0.75487944  0.67223989  0.98299954    -0.23130
C2552       C  0.75210529  0.68982380  0.01136582     0.19770
F2553       F  0.73809991  0.67691653  0.03718678    -0.13080
F2554       F  0.76040499  0.73709678  0.04114215    -0.15450
F2555       F  0.77224265  0.67281905  0.92852874    -0.15450
F2556       F  0.79692468  0.73110530  0.93422733    -0.13090
C2557       C  0.74368427  0.54377910  0.14992225     0.24930
C2558       C  0.74333027  0.51700999  0.12990590    -0.23180
C2559       C  0.75405757  0.48798304  0.14302003     0.19830
C2560       C  0.76587402  0.48621830  0.17402421     0.24870
C2561       C  0.76649144  0.51286278  0.19368830    -0.23130
C2562       C  0.75447774  0.54155219  0.18153901     0.19770
F2563       F  0.75307513  0.56751806  0.20033903    -0.13080
F2564       F  0.73354251  0.57218731  0.13901794    -0.15450
F2565       F  0.77663438  0.45805605  0.18502641    -0.15450
F2566       F  0.75436459  0.46104099  0.12556092    -0.13090
C2567       C  0.75209393  0.57150382  0.83139592     0.24930
C2568       C  0.74837767  0.54333843  0.84898628    -0.23180
C2569       C  0.75599643  0.51449634  0.83384885     0.19830
C2570       C  0.76773167  0.51399208  0.80263885     0.24870
C2571       C  0.77214654  0.54217217  0.78553407    -0.23130
C2572       C  0.76371163  0.57089347  0.80016505     0.19770
F2573       F  0.76682487  0.59855229  0.78427335    -0.13080
F2574       F  0.74502389  0.59988898  0.84465239    -0.15450
F2575       F  0.77520352  0.48582624  0.78916606    -0.15450
F2576       F  0.75402908  0.48676498  0.84986328    -0.13090
C2577       C  0.85206978  0.54191655  0.84450737     0.24930
C2578       C  0.86077949  0.54539840  0.87618776    -0.23180
C2579       C  0.89211422  0.54114446  0.88549510     0.19830
C2580       C  0.91452140  0.53266318  0.86341989     0.24870
C2581       C  0.90605615  0.52941330  0.83155071    -0.23130
C2582       C  0.87478424  0.53376717  0.82207477     0.19770
F2583       F  0.86662778  0.53085519  0.79129168    -0.13080
F2584       F  0.82165328  0.54541043  0.83574198    -0.15450
F2585       F  0.94483581  0.52839625  0.87289881    -0.15450
F2586       F  0.90054874  0.54361155  0.91641129    -0.13090
C2587       C  0.84081950  0.48936576  0.13882063     0.24930
C2588       C  0.83524108  0.51381276  0.11712051    -0.23180
C2589       C  0.85340905  0.54163238  0.11906350     0.19830
C2590       C  0.87672118  0.54501551  0.14135897     0.24870
C2591       C  0.88322460  0.52029960  0.16179123    -0.23130
C2592       C  0.86472133  0.49271845  0.16130575     0.19770
F2593       F  0.87127024  0.46840285  0.18119972    -0.13080
F2594       F  0.82453710  0.46186002  0.13723692    -0.15450
F2595       F  0.89587188  0.57068870  0.13992550    -0.15450
F2596       F  0.85136209  0.56451815  0.09716535    -0.13090
C2597       C  0.87019525  0.41648609  0.01097239     0.24930
C2598       C  0.84003392  0.40547117  0.00383620    -0.23180
C2599       C  0.83663254  0.37785942  0.98594629     0.19830
C2600       C  0.86285306  0.36138088  0.97492684     0.24870
C2601       C  0.89305426  0.37300534  0.98106141    -0.23130
C2602       C  0.89646625  0.40122566  0.99854661     0.19770
F2603       F  0.92539530  0.41392471  0.00381155    -0.13080
F2604       F  0.87422780  0.44308946  0.02840188    -0.15450
F2605       F  0.85868795  0.33379918  0.95912134    -0.15450
F2606       F  0.80776380  0.36699435  0.97904484    -0.13090
C2607       C  0.88803879  0.64058098  0.00034186     0.24930
C2608       C  0.86357086  0.64184195  0.97767490    -0.23180
C2609       C  0.85779914  0.67025873  0.96154093     0.19830
C2610       C  0.87549819  0.69707025  0.96889679     0.24870
C2611       C  0.89828680  0.69565152  0.99290978    -0.23130
C2612       C  0.90394454  0.66749139  0.00889460     0.19770
F2613       F  0.92829509  0.66492845  0.02961414    -0.13080
F2614       F  0.89750774  0.61297452  0.01382231    -0.15450
F2615       F  0.87211988  0.72366845  0.95127938    -0.15450
F2616       F  0.83627702  0.67173421  0.93796095    -0.13090
C2617       C  0.25292960  0.48857826  0.64303382     0.24930
C2618       C  0.25338458  0.51674218  0.62524818    -0.23180
C2619       C  0.26373698  0.54471581  0.64024432     0.19830
C2620       C  0.27366881  0.54436873  0.67189625     0.24870
C2621       C  0.27338026  0.51619619  0.68942220    -0.23130
C2622       C  0.26277469  0.48834920  0.67471442     0.19770
F2623       F  0.26203177  0.46078335  0.69108125    -0.13080
F2624       F  0.24320389  0.46110899  0.62965203    -0.15450
F2625       F  0.28347054  0.57169245  0.68547208    -0.15450
F2626       F  0.26586797  0.57222575  0.62384688    -0.13090
C2627       C  0.24618126  0.56009142  0.32567587     0.24930
C2628       C  0.24381980  0.53346903  0.34569935    -0.23180
C2629       C  0.25182565  0.50357888  0.33286551     0.19830
C2630       C  0.26351857  0.50080751  0.30186778     0.24870
C2631       C  0.26706506  0.52755383  0.28257523    -0.23130
C2632       C  0.25718834  0.55704652  0.29441264     0.19770
F2633       F  0.25804599  0.58303349  0.27565482    -0.13080
F2634       F  0.23821516  0.58928866  0.33639599    -0.15450
F2635       F  0.27247619  0.47194107  0.29103918    -0.15450
F2636       F  0.25038503  0.47702676  0.35083158    -0.13090
C2637       C  0.25897859  0.68807726  0.50807167     0.24930
C2638       C  0.25464689  0.67055994  0.47990622    -0.23180
C2639       C  0.26140830  0.68600132  0.45090988     0.19830
C2640       C  0.27329777  0.71690921  0.45022666     0.24870
C2641       C  0.27800466  0.73404916  0.47818947    -0.23130
C2642       C  0.27006725  0.71954815  0.50713547     0.19770
F2643       F  0.27295605  0.73591269  0.53458487    -0.13080
F2644       F  0.25269808  0.67481717  0.53662059    -0.15450
F2645       F  0.28067687  0.72998898  0.42186057    -0.15450
F2646       F  0.25783466  0.67092484  0.42278186    -0.13090
C2647       C  0.23807481  0.36830256  0.51748399     0.24930
C2648       C  0.24228402  0.38848858  0.49126887    -0.23180
C2649       C  0.25515512  0.37538336  0.46333340     0.19830
C2650       C  0.26449456  0.34344704  0.46201330     0.24870
C2651       C  0.26039124  0.32335495  0.48821460    -0.23130
C2652       C  0.24649785  0.33605708  0.51577439     0.19770
F2653       F  0.24179048  0.31732540  0.54140348    -0.13080
F2654       F  0.22621714  0.37993535  0.54498432    -0.15450
F2655       F  0.27775150  0.33222214  0.43501587    -0.15450
F2656       F  0.26080414  0.39406012  0.43783617    -0.13090
C2657       C  0.49740409  0.72361128  0.73495743     0.24930
C2658       C  0.52662032  0.73859085  0.72986110    -0.23180
C2659       C  0.55416274  0.72181158  0.73748634     0.19830
C2660       C  0.55275413  0.69098199  0.74971883     0.24870
C2661       C  0.52353623  0.67537798  0.75441122    -0.23130
C2662       C  0.49583679  0.69242600  0.74687573     0.19770
F2663       F  0.46710018  0.67885122  0.75048142    -0.13080
F2664       F  0.47021376  0.73923179  0.72855379    -0.15450
F2665       F  0.58046088  0.67629583  0.75627763    -0.15450
F2666       F  0.58278488  0.73546969  0.73337509    -0.13090
C2667       C  0.70727486  0.51240424  0.74769960     0.24930
C2668       C  0.72377067  0.53982857  0.73877320    -0.23180
C2669       C  0.70906192  0.56920389  0.74340732     0.19830
C2670       C  0.67800970  0.57122359  0.75491542     0.24870
C2671       C  0.66034691  0.54368568  0.76156854    -0.23130
C2672       C  0.67591170  0.51420517  0.75855267     0.19770
F2673       F  0.66071151  0.48684865  0.76543992    -0.13080
F2674       F  0.72158806  0.48374514  0.74629125    -0.15450
F2675       F  0.66499747  0.60037020  0.75837340    -0.15450
F2676       F  0.72478152  0.59622259  0.73634130    -0.13090
C2677       C  0.36436029  0.48899795  0.74392584     0.24930
C2678       C  0.37959668  0.51746210  0.75268785    -0.23180
C2679       C  0.36105356  0.54528850  0.75358615     0.19830
C2680       C  0.32904916  0.54482848  0.74471946     0.24870
C2681       C  0.31454769  0.51668729  0.73460483    -0.23130
C2682       C  0.33245002  0.48873647  0.73484439     0.19770
F2683       F  0.31910920  0.46103118  0.72588977    -0.13080
F2684       F  0.38053892  0.46128957  0.74314905    -0.15450
F2685       F  0.31245438  0.57227536  0.74503917    -0.15450
F2686       F  0.37414609  0.57345995  0.76144207    -0.13090
C2687       C  0.48552523  0.37686863  0.75709387     0.24930
C2688       C  0.51346134  0.39499477  0.75703986    -0.23180
C2689       C  0.54148239  0.38016247  0.74663263     0.19830
C2690       C  0.54141344  0.34848540  0.73620176     0.24870
C2691       C  0.51339149  0.33069698  0.73580537    -0.23130
C2692       C  0.48550491  0.34530595  0.74656736     0.19770
F2693       F  0.45795011  0.32908885  0.74643858    -0.13080
F2694       F  0.45787769  0.38997588  0.76671013    -0.15450
F2695       F  0.56887375  0.33524065  0.72638640    -0.15450
F2696       F  0.56871275  0.39685524  0.74471344    -0.13090
C2697       C  0.38853767  0.49025222  0.64067270     0.24930
C2698       C  0.41947883  0.49808359  0.63184958    -0.23180
C2699       C  0.42815542  0.49857597  0.59988590     0.19830
C2700       C  0.40529214  0.49485332  0.57677894     0.24870
C2701       C  0.37358174  0.49118576  0.58558082    -0.23130
C2702       C  0.36548323  0.48688915  0.61748970     0.19770
F2703       F  0.33491953  0.48318941  0.62636802    -0.13080
F2704       F  0.38004781  0.48911335  0.67162677    -0.15450
F2705       F  0.41361012  0.49747366  0.54583164    -0.15450
F2706       F  0.45843063  0.50434976  0.59113488    -0.13090
C2707       C  0.78764251  0.70888949  0.51799665     0.24930
C2708       C  0.77218757  0.72277755  0.49197048    -0.23180
C2709       C  0.76618607  0.70349747  0.46542146     0.19830
C2710       C  0.77599170  0.67163938  0.46461605     0.24870
C2711       C  0.79213358  0.65794128  0.49039509    -0.23130
C2712       C  0.79781968  0.67725659  0.51708612     0.19770
F2713       F  0.81288140  0.66543377  0.54281652    -0.13080
F2714       F  0.79247255  0.72589543  0.54478411    -0.15450
F2715       F  0.76854458  0.65394446  0.43890548    -0.15450
F2716       F  0.75116686  0.71545274  0.43983259    -0.13090
C2717       C  0.77304586  0.50644208  0.64529045     0.24930
C2718       C  0.78920283  0.53169254  0.63060557    -0.23180
C2719       C  0.79344180  0.55971666  0.64822880     0.19830
C2720       C  0.78191043  0.56237205  0.67931439     0.24870
C2721       C  0.76616166  0.53702372  0.69401662    -0.23130
C2722       C  0.76170161  0.50912077  0.67647598     0.19770
F2723       F  0.74683192  0.48402435  0.68962596    -0.13080
F2724       F  0.76709301  0.47936044  0.62915769    -0.15450
F2725       F  0.78567985  0.59010797  0.69498026    -0.15450
F2726       F  0.80835320  0.58494417  0.63523065    -0.13090
C2727       C  0.77887697  0.36045369  0.51549338     0.24930
C2728       C  0.78155894  0.37653481  0.48629080    -0.23180
C2729       C  0.77279877  0.35971924  0.45861065     0.19830
C2730       C  0.76061704  0.32886210  0.46026567     0.24870
C2731       C  0.75725448  0.31329054  0.48940505    -0.23130
C2732       C  0.76714854  0.32924509  0.51694455     0.19770
F2733       F  0.76550198  0.31459294  0.54542865    -0.13080
F2734       F  0.78648807  0.37522257  0.54293402    -0.15450
F2735       F  0.75202091  0.31410920  0.43311496    -0.15450
F2736       F  0.77515222  0.37336261  0.42963314    -0.13090
C2737       C  0.78722676  0.52775170  0.33236064     0.24930
C2738       C  0.78313856  0.49987180  0.35039941    -0.23180
C2739       C  0.77000396  0.47331147  0.33484006     0.19830
C2740       C  0.76032139  0.47498345  0.30305548     0.24870
C2741       C  0.76399613  0.50291184  0.28546645    -0.23130
C2742       C  0.77768374  0.52922215  0.30051093     0.19770
F2743       F  0.78095213  0.55686561  0.28455974    -0.13080
F2744       F  0.79915134  0.55430001  0.34577961    -0.15450
F2745       F  0.74750963  0.44901052  0.28936178    -0.15450
F2746       F  0.76567556  0.44565653  0.35052601    -0.13090
C2747       C  0.65437640  0.57586074  0.59935966     0.24930
C2748       C  0.68608338  0.57499213  0.60863348    -0.23180
C2749       C  0.69460087  0.58529281  0.63893956     0.19830
C2750       C  0.67094266  0.59086268  0.66141885     0.24870
C2751       C  0.63937179  0.58611622  0.65320251    -0.23130
C2752       C  0.63118383  0.58248645  0.62134568     0.19770
F2753       F  0.60046081  0.58024611  0.61257970    -0.13080
F2754       F  0.64558642  0.56672246  0.56991119    -0.15450
F2755       F  0.67872865  0.59809661  0.69147345    -0.15450
F2756       F  0.72528912  0.58678195  0.64751669    -0.13090
C2757       C  0.68302094  0.78698409  0.51776347     0.24930
C2758       C  0.66694484  0.79222706  0.48891557    -0.23180
C2759       C  0.68408366  0.78712140  0.46059831     0.19830
C2760       C  0.71549073  0.77594066  0.46127887     0.24870
C2761       C  0.73021271  0.76811765  0.49013285    -0.23130
C2762       C  0.71370369  0.77439502  0.51823974     0.19770
F2763       F  0.72721909  0.76772600  0.54655489    -0.13080
F2764       F  0.66866556  0.79258554  0.54596333    -0.15450
F2765       F  0.73159037  0.77325878  0.43365281    -0.15450
F2766       F  0.67046537  0.79253835  0.43208117    -0.13090
C2767       C  0.55780271  0.78476790  0.66952881     0.24930
C2768       C  0.52903105  0.78172086  0.68574727    -0.23180
C2769       C  0.50109913  0.78897751  0.66931187     0.19830
C2770       C  0.50186573  0.79822056  0.63720840     0.24870
C2771       C  0.53072645  0.80061226  0.62052799    -0.23130
C2772       C  0.55873851  0.79406185  0.63759452     0.19770
F2773       F  0.58738001  0.79586820  0.62333157    -0.13080
F2774       F  0.58531501  0.77865278  0.68466266    -0.15450
F2775       F  0.47412319  0.80405704  0.62236655    -0.15450
F2776       F  0.47287935  0.78705406  0.68431130    -0.13090
C2777       C  0.33558442  0.78545995  0.44495047     0.24930
C2778       C  0.32194322  0.77702886  0.47417572    -0.23180
C2779       C  0.34023897  0.78038089  0.50165209     0.19830
C2780       C  0.37152557  0.79131174  0.49998821     0.24870
C2781       C  0.38560323  0.79907916  0.47063651    -0.23130
C2782       C  0.36695454  0.79617047  0.44316004     0.19770
F2783       F  0.37932749  0.80295741  0.41431141    -0.13080
F2784       F  0.31860880  0.78297419  0.41791020    -0.15450
F2785       F  0.38854496  0.79257675  0.52712343    -0.15450
F2786       F  0.32776838  0.77310967  0.53031472    -0.13090
C2787       C  0.49229423  0.77238640  0.32660604     0.24930
C2788       C  0.51807444  0.78876313  0.34034246    -0.23180
C2789       C  0.54589805  0.79131103  0.32205697     0.19830
C2790       C  0.54767505  0.77832244  0.29135631     0.24870
C2791       C  0.52173393  0.76256329  0.27782776    -0.23130
C2792       C  0.49428546  0.75937125  0.29608683     0.19770
F2793       F  0.46881538  0.74424057  0.28405901    -0.13080
F2794       F  0.46495872  0.76817619  0.34280320    -0.15450
F2795       F  0.57490448  0.78118323  0.27471823    -0.15450
F2796       F  0.57166925  0.80611432  0.33386938    -0.13090
C2797       C  0.41991221  0.65016473  0.44720551     0.24930
C2798       C  0.41339260  0.68254889  0.44756326    -0.23180
C2799       C  0.38294268  0.69358234  0.44072977     0.19830
C2800       C  0.35822349  0.67210934  0.43810381     0.24870
C2801       C  0.36414982  0.63991623  0.44225652    -0.23130
C2802       C  0.39539406  0.62886867  0.44396729     0.19770
F2803       F  0.40171037  0.59741865  0.44575647    -0.13080
F2804       F  0.44968626  0.63924333  0.45184710    -0.15450
F2805       F  0.32843198  0.68281346  0.43473947    -0.15450
F2806       F  0.37671396  0.72500050  0.43974457    -0.13090
C2807       C  0.57306359  0.69607568  0.62481254     0.24930
C2808       C  0.54500765  0.71144583  0.61612589    -0.23180
C2809       C  0.51812445  0.70886699  0.63527268     0.19830
C2810       C  0.51772893  0.68731923  0.65992672     0.24870
C2811       C  0.54435361  0.66857648  0.66581063    -0.23130
C2812       C  0.57274377  0.67460504  0.64982588     0.19770
F2813       F  0.59861639  0.65640838  0.65511664    -0.13080
F2814       F  0.59932218  0.69836665  0.60651196    -0.15450
F2815       F  0.49017223  0.68184220  0.67535217    -0.15450
F2816       F  0.49116621  0.72453735  0.62784830    -0.13090
C2817       C  0.63003834  0.65461279  0.52545240     0.24930
C2818       C  0.63849242  0.68641840  0.52720369    -0.23180
C2819       C  0.66935307  0.69484982  0.53526287     0.19830
C2820       C  0.69309411  0.67193888  0.53462642     0.24870
C2821       C  0.68507236  0.64080946  0.52697808    -0.23130
C2822       C  0.65324105  0.63186872  0.52522927     0.19770
F2823       F  0.64479079  0.60146173  0.51967256    -0.13080
F2824       F  0.59959427  0.64587253  0.52068364    -0.15450
F2825       F  0.72364218  0.68051070  0.53835333    -0.15450
F2826       F  0.67663284  0.72519532  0.54142578    -0.13090
C2827       C  0.66854422  0.52682516  0.23840440     0.24930
C2828       C  0.65523195  0.49890450  0.22590146    -0.23180
C2829       C  0.67492881  0.47234664  0.22208441     0.19830
C2830       C  0.70717746  0.47390162  0.23008809     0.24870
C2831       C  0.72021958  0.50178048  0.24288025    -0.23130
C2832       C  0.70045923  0.52810597  0.24700348     0.19770
F2833       F  0.71212362  0.55522773  0.25949144    -0.13080
F2834       F  0.65021156  0.55261856  0.24386806    -0.15450
F2835       F  0.72556443  0.44798486  0.22578391    -0.15450
F2836       F  0.66299417  0.44495880  0.21049643    -0.13090
C2837       C  0.32883084  0.55386864  0.23964640     0.24930
C2838       C  0.31258611  0.52498061  0.24100443    -0.23180
C2839       C  0.32803997  0.49764118  0.22989745     0.19830
C2840       C  0.35909633  0.49900527  0.21827155     0.24870
C2841       C  0.37583771  0.52788626  0.21749645    -0.23130
C2842       C  0.35978010  0.55542327  0.22781051     0.19770
F2843       F  0.37422450  0.58401808  0.22751750    -0.13080
F2844       F  0.31464925  0.58090939  0.24941436    -0.15450
F2845       F  0.37286019  0.47173465  0.20838671    -0.15450
F2846       F  0.31293777  0.46938757  0.23038256    -0.13090
C2847       C  0.48875912  0.36248286  0.24050329     0.24930
C2848       C  0.51547657  0.37404214  0.22430731    -0.23180
C2849       C  0.54040789  0.35279354  0.21826752     0.19830
C2850       C  0.53835214  0.32082132  0.22748145     0.24870
C2851       C  0.51153178  0.30924909  0.24352889    -0.23130
C2852       C  0.48697285  0.33069875  0.25025910     0.19770
F2853       F  0.46084530  0.32084282  0.26590041    -0.13080
F2854       F  0.46488827  0.38242082  0.24840831    -0.15450
F2855       F  0.56288274  0.30116617  0.22111217    -0.15450
F2856       F  0.56693218  0.36305639  0.20352667    -0.13090
C2857       C  0.49228081  0.70561808  0.22290642     0.24930
C2858       C  0.52038436  0.71907670  0.23413126    -0.23180
C2859       C  0.54785620  0.70044687  0.23392519     0.19830
C2860       C  0.54714716  0.66883516  0.22334791     0.24870
C2861       C  0.51874363  0.65489322  0.21281867    -0.23130
C2862       C  0.49141136  0.67415329  0.21237649     0.19770
F2863       F  0.46338858  0.66250689  0.20225571    -0.13080
F2864       F  0.46536371  0.72298479  0.22228433    -0.15450
F2865       F  0.57417422  0.65166239  0.22455260    -0.15450
F2866       F  0.57552837  0.71292556  0.24398040    -0.13090
C2867       C  0.36203362  0.53523998  0.30683686     0.24930
C2868       C  0.38412571  0.55977331  0.30564751    -0.23180
C2869       C  0.38066006  0.58625022  0.32530750     0.19830
C2870       C  0.35680859  0.58671402  0.34807513     0.24870
C2871       C  0.33688597  0.56045368  0.35120233    -0.23130
C2872       C  0.33869790  0.53549664  0.32957921     0.19770
F2873       F  0.32138170  0.50894610  0.33384279    -0.13080
F2874       F  0.36611406  0.50864006  0.28931667    -0.15450
F2875       F  0.35657908  0.61005912  0.37015237    -0.15450
F2876       F  0.40319531  0.60885900  0.32608814    -0.13090
C2877       C  0.52987622  0.66844940  0.31153654     0.24930
C2878       C  0.50093282  0.65405595  0.30423354    -0.23180
C2879       C  0.47357505  0.66372168  0.32019816     0.19830
C2880       C  0.47606431  0.68297284  0.34693179     0.24870
C2881       C  0.50592616  0.69315351  0.35709871    -0.23130
C2882       C  0.53238381  0.68774786  0.33795817     0.19770
F2883       F  0.56105201  0.69950164  0.34596396    -0.13080
F2884       F  0.55654237  0.66040442  0.29560404    -0.15450
F2885       F  0.44988824  0.68895438  0.36451609    -0.15450
F2886       F  0.44517872  0.65140254  0.31244871    -0.13090
C2887       C  0.64516051  0.47205509  0.33885335     0.24930
C2888       C  0.61438711  0.48136800  0.34667820    -0.23180
C2889       C  0.60622983  0.48782405  0.37818523     0.19830
C2890       C  0.62952226  0.48890593  0.40108702     0.24870
C2891       C  0.66099730  0.48337564  0.39254277    -0.23130
C2892       C  0.66852458  0.47300514  0.36188092     0.19770
F2893       F  0.69884971  0.46718021  0.35341392    -0.13080
F2894       F  0.65325402  0.46558448  0.30841207    -0.15450
F2895       F  0.62170478  0.49731012  0.43112477    -0.15450
F2896       F  0.57609421  0.49529851  0.38622791    -0.13090
C2897       C  0.54460872  0.26332330  0.64859730     0.24930
C2898       C  0.51672637  0.25944251  0.63077458    -0.23180
C2899       C  0.48784455  0.26777100  0.64537511     0.19830
C2900       C  0.48712194  0.28075986  0.67608898     0.24870
C2901       C  0.51510039  0.28560457  0.69326195    -0.23130
C2902       C  0.54374908  0.27599021  0.67939457     0.19770
F2903       F  0.57106785  0.27865750  0.69578467    -0.13080
F2904       F  0.57296977  0.25520417  0.63603835    -0.15450
F2905       F  0.45898651  0.28933298  0.68883161    -0.15450
F2906       F  0.46033741  0.26549210  0.62919113    -0.13090
C2907       C  0.47667225  0.25644703  0.29898746     0.24930
C2908       C  0.50593569  0.26423062  0.28542128    -0.23180
C2909       C  0.53326097  0.25933866  0.30352170     0.19830
C2910       C  0.53136248  0.24847699  0.33498825     0.24870
C2911       C  0.50185204  0.24266196  0.34954131    -0.23130
C2912       C  0.47455637  0.24617589  0.33059611     0.19770
F2913       F  0.44549529  0.24036163  0.34274467    -0.13080
F2914       F  0.44990906  0.25905330  0.28163860    -0.15450
F2915       F  0.55852878  0.24559369  0.35165184    -0.15450
F2916       F  0.56196028  0.26608384  0.29100833    -0.13090
C2917       C  0.34804235  0.25632517  0.45774223     0.24930
C2918       C  0.36598779  0.25428476  0.48587244    -0.23180
C2919       C  0.35108856  0.26333808  0.51454332     0.19830
C2920       C  0.31985250  0.27496811  0.51472855     0.24870
C2921       C  0.30294189  0.27851022  0.48629144    -0.23130
C2922       C  0.31730191  0.26857755  0.45796521     0.19770
F2923       F  0.30156312  0.27107912  0.43016347    -0.13080
F2924       F  0.36042206  0.24727045  0.42950589    -0.15450
F2925       F  0.30663520  0.28418426  0.54251433    -0.15450
F2926       F  0.36716218  0.26269985  0.54226386    -0.13090
C2927       C  0.66385967  0.25181993  0.46882542     0.24930
C2928       C  0.64845397  0.25076618  0.49855152    -0.23180
C2929       C  0.66662235  0.25839007  0.52557409     0.19830
C2930       C  0.69837352  0.26789949  0.52281729     0.24870
C2931       C  0.71321052  0.26999064  0.49306878    -0.23130
C2932       C  0.69568725  0.26117499  0.46621178     0.19770
F2933       F  0.70926398  0.26220851  0.43713882    -0.13080
F2934       F  0.64775206  0.24543324  0.44186561    -0.15450
F2935       F  0.71455177  0.27532877  0.54942902    -0.15450
F2936       F  0.65345702  0.25752176  0.55486193    -0.13090
C2937       C  0.52828634  0.37108800  0.32600896     0.24930
C2938       C  0.51315026  0.39943046  0.33430165    -0.23180
C2939       C  0.49100245  0.39942064  0.35933575     0.19830
C2940       C  0.48205830  0.37137356  0.37351244     0.24870
C2941       C  0.49719454  0.34319114  0.36538444    -0.23130
C2942       C  0.52114010  0.34341544  0.34236706     0.19770
F2943       F  0.53810974  0.31705101  0.33622722    -0.13080
F2944       F  0.54967885  0.36997283  0.30209454    -0.15450
F2945       F  0.46016134  0.37226624  0.39690497    -0.15450
F2946       F  0.47789009  0.42662692  0.37039375    -0.13090
C2947       C  0.40512927  0.38501755  0.46699493     0.24930
C2948       C  0.39088261  0.35542976  0.46977943    -0.23180
C2949       C  0.36101913  0.35319659  0.48343507     0.19830
C2950       C  0.34532988  0.37983908  0.49453346     0.24870
C2951       C  0.35972151  0.40936904  0.49202725    -0.23130
C2952       C  0.39022290  0.41168495  0.47906846     0.19770
F2953       F  0.40487995  0.44013486  0.47679698    -0.13080
F2954       F  0.43352255  0.38812656  0.45277541    -0.15450
F2955       F  0.31556747  0.37701065  0.50598012    -0.15450
F2956       F  0.34687120  0.32508489  0.48528882    -0.13090
C2957       C  0.53068009  0.40032315  0.58991286     0.24930
C2958       C  0.52493523  0.36971609  0.60079174    -0.23180
C2959       C  0.51389999  0.36464100  0.63157602     0.19830
C2960       C  0.50917212  0.39019482  0.65182058     0.24870
C2961       C  0.51506117  0.42086990  0.64088295    -0.23130
C2962       C  0.52539285  0.42580920  0.60966295     0.19770
F2963       F  0.52982604  0.45546005  0.59814333    -0.13080
F2964       F  0.53922230  0.40556487  0.55935671    -0.15450
F2965       F  0.49925234  0.38504899  0.68190062    -0.15450
F2966       F  0.50653892  0.33519035  0.64136708    -0.13090
C2967       C  0.61385962  0.39656948  0.49935499     0.24930
C2968       C  0.62256824  0.36479006  0.50208027    -0.23180
C2969       C  0.65366547  0.35522657  0.49656216     0.19830
C2970       C  0.67624829  0.37769577  0.48866312     0.24870
C2971       C  0.66731001  0.40938554  0.48551864    -0.23130
C2972       C  0.63595434  0.41865687  0.49045218     0.19770
F2973       F  0.62707319  0.44941291  0.48757183    -0.13080
F2974       F  0.58341609  0.40577595  0.50356273    -0.15450
F2975       F  0.70675761  0.36889510  0.48525984    -0.15450
F2976       F  0.66166381  0.32426093  0.49750474    -0.13090
loop_ 
_geom_bond_atom_site_label_1 
_geom_bond_atom_site_label_2 
_geom_bond_distance 
_geom_bond_site_symmetry_2 
_ccdc_geom_bond_type 
O1          Zr13   2.383       .  S
O1            C3   1.276       .  A
O2          Zr39   2.401       .  S
O2            C3   1.280       .  A
C3         C2968   1.430       .  S
O4          Zr16   2.404       .  S
O4            C6   1.269       .  A
O5          Zr40   2.432       .  S
O5            C6   1.278       .  A
C6         C2948   1.454       .  S
O7          Zr16   2.393       .  S
O7            C9   1.277       .  A
O8          Zr39   2.419       .  S
O8            C9   1.283       .  A
C9         C2958   1.436       .  S
O10         Zr13   2.400       .  S
O10          C12   1.269       .  A
O11         Zr40   2.421       .  S
O11          C12   1.279       .  A
C12        C2941   1.455       .  S
Zr13         O14   2.435       .  S
Zr13         O15   2.437       .  S
Zr13         O19   2.363       .  S
Zr13         O20   2.354       .  S
Zr13         O43   2.345       .  S
Zr13         O45   2.353       .  S
O14          H57   0.990       .  S
O15          H56   0.990       .  S
O15          H60   0.990       .  S
Zr16         O17   2.439       .  S
Zr16         O18   2.436       .  S
Zr16         O20   2.365       .  S
Zr16         O19   2.352       .  S
Zr16         O44   2.354       .  S
Zr16         O46   2.358       .  S
O17          H58   0.987       .  S
O17          H61   0.989       .  S
O18          H51   0.990       .  S
O19         Zr39   2.387       .  S
O20         Zr40   2.423       .  S
O20          H47   0.962       .  S
O21         Zr33   2.509       .  S
O21          C23   1.301       .  A
O22         Zr40   2.425       .  S
O22          C23   1.287       .  A
C23        C2911   1.512       .  S
O24         Zr36   2.510       .  S
O24          C26   1.301       .  A
O25         Zr39   2.428       .  S
O25          C26   1.288       .  A
C26        C2898   1.506       .  S
O27         Zr36   2.510       .  S
O27          C29   1.300       .  A
O28         Zr40   2.419       .  S
O28          C29   1.286       .  A
C29        C2918   1.510       .  S
O30         Zr33   2.515       .  S
O30          C32   1.301       .  A
O31         Zr39   2.434       .  S
O31          C32   1.289       .  A
C32        C2928   1.515       .  S
Zr33         O34   2.437       .  S
Zr33         O35   2.434       .  S
Zr33         O41   2.415       .  S
Zr33         O42   2.402       .  S
Zr33         O45   2.384       .  S
Zr33         O43   2.351       .  S
O34          H54   0.989       .  S
O34          H59   0.989       .  S
O35          H55   0.990       .  S
Zr36         O37   2.434       .  S
Zr36         O38   2.438       .  S
Zr36         O42   2.405       .  S
Zr36         O41   2.407       .  S
Zr36         O46   2.357       .  S
Zr36         O44   2.379       .  S
O37          H53   0.990       .  S
O38          H52   0.990       .  S
O38          H62   0.990       .  S
Zr39         O42   2.393       .  S
Zr39         O44   2.387       .  S
Zr39         O45   2.392       .  S
Zr40         O41   2.417       .  S
Zr40         O43   2.378       .  S
Zr40         O46   2.384       .  S
O41          H49   0.966       .  S
O44          H48   0.960       .  S
O45          H50   0.963       .  S
O63         Zr75   2.422       .  S
O63          C65   1.285       .  A
O64        Zr101   2.387       .  S
O64          C65   1.279       .  A
C65        C2888   1.449       .  S
O66         Zr78   2.399       .  S
O66          C68   1.281       .  A
O67        Zr102   2.406       .  S
O67          C68   1.281       .  A
C68        C2868   1.450       .  S
O69         Zr78   2.372       .  S
O69          C71   1.276       .  A
O70        Zr101   2.436       .  S
O70          C71   1.288       .  A
C71        C2938   1.468       .  S
O72         Zr75   2.398       .  S
O72          C74   1.281       .  A
O73        Zr102   2.430       .  S
O73          C74   1.286       .  A
C74        C2878   1.463       .  S
Zr75         O76   2.434       .  S
Zr75         O77   2.437       .  S
Zr75         O81   2.345       .  S
Zr75         O82   2.354       .  S
Zr75        O105   2.352       .  S
Zr75        O107   2.338       .  S
O76         H119   0.990       .  S
O77         H118   0.990       .  S
O77         H122   0.990       .  S
Zr78         O79   2.436       .  S
Zr78         O80   2.435       .  S
Zr78         O82   2.347       .  S
Zr78         O81   2.346       .  S
Zr78        O106   2.356       .  S
Zr78        O108   2.328       .  S
O79         H120   0.990       .  S
O79         H123   0.990       .  S
O80         H113   0.990       .  S
O81        Zr101   2.388       .  S
O82        Zr102   2.387       .  S
O82         H109   0.966       .  S
O83         Zr95   2.508       .  S
O83          C85   1.298       .  A
O84        Zr102   2.408       .  S
O84          C85   1.281       .  A
C85        C2861   1.509       .  S
O86         Zr98   2.513       .  S
O86          C88   1.300       .  A
O87        Zr101   2.424       .  S
O87          C88   1.286       .  A
C88        C2848   1.501       .  S
O89         Zr98   2.499       .  S
O89          C91   1.298       .  A
O90        Zr102   2.438       .  S
O90          C91   1.288       .  A
C91        C2841   1.508       .  S
O92         Zr95   2.481       .  S
O92          C94   1.296       .  A
O93        Zr101   2.458       .  S
O93          C94   1.292       .  A
C94        C2828   1.497       .  S
Zr95         O96   2.438       .  S
Zr95         O97   2.435       .  S
Zr95        O103   2.406       .  S
Zr95        O104   2.410       .  S
Zr95        O107   2.392       .  S
Zr95        O105   2.356       .  S
O96         H116   0.989       .  S
O96         H121   0.989       .  S
O97         H117   0.990       .  S
Zr98         O99   2.434       .  S
Zr98        O100   2.438       .  S
Zr98        O104   2.400       .  S
Zr98        O103   2.411       .  S
Zr98        O108   2.359       .  S
Zr98        O106   2.371       .  S
O99         H115   0.990       .  S
O100        H114   0.990       .  S
O100        H124   0.990       .  S
Zr101       O104   2.395       .  S
Zr101       O106   2.384       .  S
Zr101       O107   2.388       .  S
Zr102       O103   2.407       .  S
Zr102       O105   2.372       .  S
Zr102       O108   2.363       .  S
O103        H111   0.966       .  S
O106        H110   0.963       .  S
O107        H112   0.963       .  S
O125       Zr137   2.452       .  S
O125        C127   1.292       .  A
O126       Zr163   2.390       .  S
O126        C127   1.279       .  A
C127       C2881   1.462       .  S
O128       Zr140   2.430       .  S
O128        C130   1.287       .  A
O129       Zr164   2.391       .  S
O129        C130   1.279       .  A
C130       C2808   1.456       .  S
O131       Zr140   2.442       .  S
O131        C133   1.289       .  A
O132       Zr163   2.375       .  S
O132        C133   1.276       .  A
C133       C2798   1.448       .  S
O134       Zr137   2.430       .  S
O134        C136   1.289       .  A
O135       Zr164   2.389       .  S
O135        C136   1.277       .  A
C136       C2818   1.448       .  S
Zr137       O138   2.434       .  S
Zr137       O139   2.435       .  S
Zr137       O143   2.354       .  S
Zr137       O144   2.361       .  S
Zr137       O167   2.361       .  S
Zr137       O169   2.344       .  S
O138        H181   0.990       .  S
O139        H180   0.990       .  S
O139        H184   0.990       .  S
Zr140       O141   2.437       .  S
Zr140       O142   2.437       .  S
Zr140       O144   2.342       .  S
Zr140       O143   2.357       .  S
Zr140       O168   2.338       .  S
Zr140       O170   2.360       .  S
O141        H182   0.990       .  S
O141        H185   0.990       .  S
O142        H175   0.990       .  S
O143       Zr163   2.387       .  S
O144       Zr164   2.394       .  S
O144        H171   0.965       .  S
O145       Zr157   2.509       .  S
O145        C147   1.299       .  A
O146       Zr164   2.422       .  S
O146        C147   1.285       .  A
C147       C2758   1.514       .  S
O148       Zr160   2.500       .  S
O148        C150   1.299       .  A
O149       Zr163   2.434       .  S
O149        C150   1.287       .  A
C150       C2781   1.504       .  S
O151       Zr160   2.511       .  S
O151        C153   1.299       .  A
O152       Zr164   2.419       .  S
O152        C153   1.283       .  A
C153       C2771   1.516       .  S
O154       Zr157   2.513       .  S
O154        C156   1.300       .  A
O155       Zr163   2.417       .  S
O155        C156   1.283       .  A
C156       C2788   1.514       .  S
Zr157       O158   2.435       .  S
Zr157       O159   2.436       .  S
Zr157       O165   2.411       .  S
Zr157       O166   2.413       .  S
Zr157       O169   2.371       .  S
Zr157       O167   2.370       .  S
O158        H178   0.990       .  S
O158        H183   0.990       .  S
O159        H179   0.990       .  S
Zr160       O161   2.434       .  S
Zr160       O162   2.437       .  S
Zr160       O166   2.409       .  S
Zr160       O165   2.413       .  S
Zr160       O170   2.356       .  S
Zr160       O168   2.387       .  S
O161        H177   0.990       .  S
O162        H176   0.990       .  S
O162        H186   0.990       .  S
Zr163       O166   2.377       .  S
Zr163       O168   2.377       .  S
Zr163       O169   2.381       .  S
Zr164       O165   2.387       .  S
Zr164       O167   2.373       .  S
Zr164       O170   2.370       .  S
O165        H173   0.966       .  S
O168        H172   0.963       .  S
O169        H174   0.961       .  S
O187       Zr199   2.366       .  S
O187        C189   1.275       .  A
O188       Zr225   2.416       .  S
O188        C189   1.283       .  A
C189       C2971   1.436       .  S
O190       Zr202   2.410       .  S
O190        C192   1.283       .  A
O191       Zr226   2.407       .  S
O191        C192   1.281       .  A
C192       C2821   1.448       .  S
O193       Zr202   2.431       .  S
O193        C195   1.286       .  A
O194       Zr225   2.380       .  S
O194        C195   1.277       .  A
C195       C2891   1.452       .  S
O196       Zr199   2.425       .  S
O196        C198   1.286       .  A
O197       Zr226   2.407       .  S
O197        C198   1.280       .  A
C198       C2748   1.455       .  S
Zr199       O200   2.434       .  S
Zr199       O201   2.434       .  S
Zr199       O205   2.363       .  S
Zr199       O206   2.330       .  S
Zr199       O229   2.322       .  S
Zr199       O231   2.353       .  S
O200        H243   0.990       .  S
O201        H242   0.990       .  S
O201        H246   0.990       .  S
Zr202       O203   2.439       .  S
Zr202       O204   2.435       .  S
Zr202       O206   2.355       .  S
Zr202       O205   2.352       .  S
Zr202       O230   2.328       .  S
Zr202       O232   2.351       .  S
O203        H244   0.990       .  S
O203        H247   0.990       .  S
O204        H237   0.990       .  S
O205       Zr225   2.383       .  S
O206       Zr226   2.393       .  S
O206        H233   0.963       .  S
O207       Zr219   2.511       .  S
O207        C209   1.301       .  A
O208       Zr226   2.424       .  S
O208        C209   1.284       .  A
C209       C2718   1.502       .  S
O210       Zr222   2.501       .  S
O210        C212   1.300       .  A
O211       Zr225   2.438       .  S
O211        C212   1.289       .  A
C212       C2738   1.512       .  S
O213       Zr222   2.523       .  S
O213        C215   1.302       .  A
O214       Zr226   2.405       .  S
O214        C215   1.279       .  A
C215       C2711   1.507       .  S
O216       Zr219   2.528       .  S
O216        C218   1.303       .  A
O217       Zr225   2.406       .  S
O217        C218   1.282       .  A
C218       C2728   1.514       .  S
Zr219       O220   2.435       .  S
Zr219       O221   2.436       .  S
Zr219       O227   2.417       .  S
Zr219       O228   2.404       .  S
Zr219       O231   2.372       .  S
Zr219       O229   2.364       .  S
O220        H240   0.990       .  S
O220        H245   0.990       .  S
O221        H241   0.990       .  S
Zr222       O223   2.434       .  S
Zr222       O224   2.437       .  S
Zr222       O228   2.413       .  S
Zr222       O227   2.409       .  S
Zr222       O232   2.359       .  S
Zr222       O230   2.388       .  S
O223        H239   0.990       .  S
O224        H238   0.990       .  S
O224        H248   0.990       .  S
Zr225       O228   2.382       .  S
Zr225       O230   2.383       .  S
Zr225       O231   2.385       .  S
Zr226       O227   2.400       .  S
Zr226       O229   2.367       .  S
Zr226       O232   2.383       .  S
O227        H235   0.966       .  S
O230        H234   0.963       .  S
O231        H236   0.964       .  S
O249       Zr261   2.441       .  S
O249        C251   1.288       .  A
O250       Zr287   2.379       .  S
O250        C251   1.277       .  A
C251       C2698   1.452       .  S
O252       Zr264   2.420       .  S
O252        C254   1.285       .  A
O253       Zr288   2.412       .  S
O253        C254   1.280       .  A
C254       C2751   1.456       .  S
O255       Zr264   2.377       .  S
O255        C257   1.276       .  A
O256       Zr287   2.420       .  S
O256        C257   1.284       .  A
C257       C2961   1.448       .  S
O258       Zr261   2.421       .  S
O258        C260   1.286       .  A
O259       Zr288   2.401       .  S
O259        C260   1.281       .  A
C260       C2811   1.453       .  S
Zr261       O262   2.434       .  S
Zr261       O263   2.436       .  S
Zr261       O267   2.349       .  S
Zr261       O268   2.348       .  S
Zr261       O291   2.356       .  S
Zr261       O293   2.342       .  S
O262        H305   0.990       .  S
O263        H304   0.990       .  S
O263        H308   0.990       .  S
Zr264       O265   2.437       .  S
Zr264       O266   2.435       .  S
Zr264       O268   2.349       .  S
Zr264       O267   2.362       .  S
Zr264       O292   2.356       .  S
Zr264       O294   2.324       .  S
O265        H306   0.990       .  S
O265        H309   0.990       .  S
O266        H299   0.990       .  S
O267       Zr287   2.384       .  S
O268       Zr288   2.392       .  S
O268        H295   0.965       .  S
O269       Zr281   2.523       .  S
O269        C271   1.300       .  A
O270       Zr288   2.406       .  S
O270        C271   1.279       .  A
C271       C2661   1.516       .  S
O272       Zr284   2.518       .  S
O272        C274   1.301       .  A
O273       Zr287   2.409       .  S
O273        C274   1.282       .  A
C274       C2688   1.503       .  S
O275       Zr284   2.503       .  S
O275        C277   1.299       .  A
O276       Zr288   2.437       .  S
O276        C277   1.288       .  A
C277       C2671   1.508       .  S
O278       Zr281   2.505       .  S
O278        C280   1.300       .  A
O279       Zr287   2.432       .  S
O279        C280   1.288       .  A
C280       C2678   1.512       .  S
Zr281       O282   2.437       .  S
Zr281       O283   2.434       .  S
Zr281       O289   2.416       .  S
Zr281       O290   2.413       .  S
Zr281       O293   2.388       .  S
Zr281       O291   2.355       .  S
O282        H302   0.989       .  S
O282        H307   0.990       .  S
O283        H303   0.990       .  S
Zr284       O285   2.434       .  S
Zr284       O286   2.438       .  S
Zr284       O290   2.403       .  S
Zr284       O289   2.415       .  S
Zr284       O294   2.364       .  S
Zr284       O292   2.373       .  S
O285        H301   0.990       .  S
O286        H300   0.990       .  S
O286        H310   0.990       .  S
Zr287       O290   2.386       .  S
Zr287       O292   2.383       .  S
Zr287       O293   2.386       .  S
Zr288       O289   2.403       .  S
Zr288       O291   2.381       .  S
Zr288       O294   2.364       .  S
O289        H297   0.966       .  S
O292        H296   0.964       .  S
O293        H298   0.964       .  S
O311       Zr323   2.366       .  S
O311        C313   1.274       .  A
O312       Zr349   2.430       .  S
O312        C313   1.287       .  A
C313       C2951   1.451       .  S
O314       Zr326   2.400       .  S
O314        C316   1.281       .  A
O315       Zr350   2.431       .  S
O315        C316   1.285       .  A
C316       C2801   1.454       .  S
O317       Zr326   2.419       .  S
O317        C319   1.284       .  A
O318       Zr349   2.396       .  S
O318        C319   1.280       .  A
C319       C2701   1.454       .  S
O320       Zr323   2.415       .  S
O320        C322   1.284       .  A
O321       Zr350   2.387       .  S
O321        C322   1.278       .  A
C322       C2871   1.447       .  S
Zr323       O324   2.434       .  S
Zr323       O325   2.436       .  S
Zr323       O329   2.356       .  S
Zr323       O330   2.323       .  S
Zr323       O353   2.323       .  S
Zr323       O355   2.349       .  S
O324        H367   0.990       .  S
O325        H366   0.990       .  S
O325        H370   0.990       .  S
Zr326       O327   2.439       .  S
Zr326       O328   2.436       .  S
Zr326       O330   2.364       .  S
Zr326       O329   2.351       .  S
Zr326       O354   2.332       .  S
Zr326       O356   2.351       .  S
O327        H368   0.990       .  S
O327        H371   0.990       .  S
O328        H361   0.990       .  S
O329       Zr349   2.383       .  S
O330       Zr350   2.390       .  S
O330        H357   0.964       .  S
O331       Zr343   2.488       .  S
O331        C333   1.296       .  A
O332       Zr350   2.441       .  S
O332        C333   1.288       .  A
C333       C2628   1.503       .  S
O334       Zr346   2.484       .  S
O334        C336   1.297       .  A
O335       Zr349   2.432       .  S
O335        C336   1.289       .  A
C336       C2618   1.493       .  S
O337       Zr346   2.522       .  S
O337        C339   1.301       .  A
O338       Zr350   2.407       .  S
O338        C339   1.281       .  A
C339       C2638   1.512       .  S
O340       Zr343   2.506       .  S
O340        C342   1.299       .  A
O341       Zr349   2.431       .  S
O341        C342   1.287       .  A
C342       C2648   1.501       .  S
Zr343       O344   2.436       .  S
Zr343       O345   2.436       .  S
Zr343       O351   2.412       .  S
Zr343       O352   2.393       .  S
Zr343       O355   2.379       .  S
Zr343       O353   2.358       .  S
O344        H364   0.990       .  S
O344        H369   0.990       .  S
O345        H365   0.990       .  S
Zr346       O347   2.435       .  S
Zr346       O348   2.437       .  S
Zr346       O352   2.415       .  S
Zr346       O351   2.402       .  S
Zr346       O356   2.364       .  S
Zr346       O354   2.393       .  S
O347        H363   0.990       .  S
O348        H362   0.990       .  S
O348        H372   0.990       .  S
Zr349       O352   2.392       .  S
Zr349       O354   2.392       .  S
Zr349       O355   2.380       .  S
Zr350       O351   2.402       .  S
Zr350       O353   2.362       .  S
Zr350       O356   2.381       .  S
O351        H359   0.966       .  S
O354        H358   0.964       .  S
O355        H360   0.963       .  S
O373       Zr385   2.362   1_556  S
O373        C375   1.270       .  A
O374       Zr411   2.426       .  S
O374        C375   1.284       .  A
C375       C2608   1.466       .  S
O376       Zr388   2.411       .  S
O376        C378   1.271   1_556  A
O377       Zr412   2.427       .  S
O377        C378   1.279       .  A
C378       C2598   1.455       .  S
O379       Zr388   2.384       .  S
O379        C381   1.276       .  A
O380       Zr411   2.407       .  S
O380        C381   1.281       .  A
C381       C2578   1.434       .  S
O382       Zr385   2.398       .  S
O382        C384   1.270       .  A
O383       Zr412   2.442       .  S
O383        C384   1.282       .  A
C384       C2588   1.471       .  S
Zr385       O386   2.436       .  S
Zr385       O387   2.457       .  S
Zr385       O391   2.356   1_554  S
Zr385       O392   2.357       .  S
Zr385       O415   2.339       .  S
Zr385       O417   2.335       .  S
O386        H429   0.990       .  S
O387        H428   0.989       .  S
O387        H432   0.990       .  S
Zr388       O389   2.438       .  S
Zr388       O390   2.434       .  S
Zr388       O392   2.362   1_556  S
Zr388       O391   2.354       .  S
Zr388       O416   2.352       .  S
Zr388       O418   2.348       .  S
O389        H430   0.988       .  S
O389        H433   0.989       .  S
O390        H423   0.990       .  S
O391       Zr411   2.383       .  S
O392       Zr412   2.413       .  S
O392        H419   0.964       .  S
O393       Zr405   2.542       .  S
O393        C395   1.307       .  A
O394       Zr412   2.409       .  S
O394        C395   1.282       .  A
C395       C2558   1.520       .  S
O396       Zr408   2.510       .  S
O396        C398   1.300       .  A
O397       Zr411   2.424       .  S
O397        C398   1.286       .  A
C398       C2568   1.505       .  S
O399       Zr408   2.514       .  S
O399        C401   1.301       .  A
O400       Zr412   2.419       .  S
O400        C401   1.286   1_554  A
C401       C2538   1.509       .  S
O402       Zr405   2.530       .  S
O402        C404   1.305   1_554  A
O403       Zr411   2.427       .  S
O403        C404   1.287       .  A
C404       C2551   1.521       .  S
Zr405       O406   2.434       .  S
Zr405       O407   2.435       .  S
Zr405       O413   2.414       .  S
Zr405       O414   2.413   1_554  S
Zr405       O417   2.383       .  S
Zr405       O415   2.348       .  S
O406        H426   0.990       .  S
O406        H431   0.990       .  S
O407        H427   0.990       .  S
Zr408       O409   2.434       .  S
Zr408       O410   2.437       .  S
Zr408       O414   2.405       .  S
Zr408       O413   2.409   1_556  S
Zr408       O418   2.357       .  S
Zr408       O416   2.383       .  S
O409        H425   0.990       .  S
O410        H424   0.990       .  S
O410        H434   0.990       .  S
Zr411       O414   2.395       .  S
Zr411       O416   2.389       .  S
Zr411       O417   2.375   1_556  S
Zr412       O413   2.418       .  S
Zr412       O415   2.377       .  S
Zr412       O418   2.379   1_554  S
O413        H421   0.966       .  S
O416        H420   0.962       .  S
O417        H422   0.960       .  S
O435       Zr447   2.432       .  S
O435        C437   1.286   1_455  A
O436       Zr473   2.382       .  S
O436        C437   1.277       .  A
C437       C2521   1.452       .  S
O438       Zr450   2.404   1_455  S
O438        C440   1.282       .  A
O439       Zr474   2.411       .  S
O439        C440   1.282       .  A
C440       C2528   1.455       .  S
O441       Zr450   2.367       .  S
O441        C443   1.275       .  A
O442       Zr473   2.422       .  S
O442        C443   1.284       .  A
C443       C2581   1.439       .  S
O444       Zr447   2.407       .  S
O444        C446   1.270       .  A
O445       Zr474   2.420       .  S
O445        C446   1.278       .  A
C446       C2508   1.448       .  S
Zr447       O448   2.433       .  S
Zr447       O449   2.435       .  S
Zr447       O453   2.345       .  S
Zr447       O454   2.366       .  S
Zr447       O477   2.362       .  S
Zr447       O479   2.342       .  S
O448        H491   0.990       .  S
O449        H490   0.990       .  S
O449        H494   0.990       .  S
Zr450       O451   2.436   1_655  S
Zr450       O452   2.434       .  S
Zr450       O454   2.340   1_655  S
Zr450       O453   2.352   1_655  S
Zr450       O478   2.354       .  S
Zr450       O480   2.327   1_655  S
O451        H492   0.990       .  S
O451        H495   0.990   1_455  S
O452        H485   0.990       .  S
O453       Zr473   2.383   1_455  S
O454       Zr474   2.403       .  S
O454        H481   0.963       .  S
O455       Zr467   2.514       .  S
O455        C457   1.300       .  A
O456       Zr474   2.416       .  S
O456        C457   1.284       .  A
C457       C2468   1.515       .  S
O458       Zr470   2.523       .  S
O458        C460   1.302       .  A
O459       Zr473   2.409       .  S
O459        C460   1.283       .  A
C460       C2498   1.507       .  S
O461       Zr470   2.511   1_455  S
O461        C463   1.301       .  A
O462       Zr474   2.435       .  S
O462        C463   1.288       .  A
C463       C2491   1.512       .  S
O464       Zr467   2.486       .  S
O464        C466   1.296   1_455  A
O465       Zr473   2.444       .  S
O465        C466   1.289       .  A
C466       C2481   1.495       .  S
Zr467       O468   2.438       .  S
Zr467       O469   2.434       .  S
Zr467       O475   2.412       .  S
Zr467       O476   2.408   1_455  S
Zr467       O479   2.400       .  S
Zr467       O477   2.345       .  S
O468        H488   0.989       .  S
O468        H493   0.989       .  S
O469        H489   0.990       .  S
Zr470       O471   2.434       .  S
Zr470       O472   2.437       .  S
Zr470       O476   2.405       .  S
Zr470       O475   2.417   1_655  S
Zr470       O480   2.357   1_655  S
Zr470       O478   2.374       .  S
O471        H487   0.990       .  S
O472        H486   0.990       .  S
O472        H496   0.990       .  S
Zr473       O476   2.388       .  S
Zr473       O478   2.387       .  S
Zr473       O479   2.387   1_655  S
Zr474       O475   2.409       .  S
Zr474       O477   2.379       .  S
Zr474       O480   2.367       .  S
O475        H483   0.965       .  S
O478        H482   0.964       .  S
O479        H484   0.963       .  S
O497       Zr509   2.401       .  S
O497        C499   1.279   1_554  A
O498       Zr535   2.440       .  S
O498        C499   1.289       .  A
C499       C2448   1.479       .  S
O500       Zr512   2.403       .  S
O500        C502   1.269   1_556  A
O501       Zr536   2.423       .  S
O501        C502   1.283       .  A
C502       C2458   1.453   1_554  S
O503       Zr512   2.379       .  S
O503        C505   1.275       .  A
O504       Zr535   2.415       .  S
O504        C505   1.284       .  A
C505       C2511   1.453       .  S
O506       Zr509   2.404       .  S
O506        C508   1.269       .  A
O507       Zr536   2.436       .  S
O507        C508   1.278       .  A
C508       C2441   1.455       .  S
Zr509       O510   2.434       .  S
Zr509       O511   2.438       .  S
Zr509       O515   2.350   1_554  S
Zr509       O516   2.364       .  S
Zr509       O539   2.363       .  S
Zr509       O541   2.361       .  S
O510        H553   0.990       .  S
O511        H552   0.990       .  S
O511        H556   0.990       .  S
Zr512       O513   2.446       .  S
Zr512       O514   2.435       .  S
Zr512       O516   2.358   1_556  S
Zr512       O515   2.366       .  S
Zr512       O540   2.357       .  S
Zr512       O542   2.348       .  S
O513        H554   0.987       .  S
O513        H557   0.990       .  S
O514        H547   0.990       .  S
O515       Zr535   2.386       .  S
O516       Zr536   2.419       .  S
O516        H543   0.963       .  S
O517       Zr529   2.500       .  S
O517        C519   1.298       .  A
O518       Zr536   2.417       .  S
O518        C519   1.286       .  A
C519       C2408   1.507       .  S
O520       Zr532   2.494       .  S
O520        C522   1.298       .  A
O521       Zr535   2.433       .  S
O521        C522   1.288       .  A
C522       C2398   1.498       .  S
O523       Zr532   2.516       .  S
O523        C525   1.301       .  A
O524       Zr536   2.415       .  S
O524        C525   1.284   1_554  A
C525       C2418   1.513       .  S
O526       Zr529   2.496   1_556  S
O526        C528   1.298       .  A
O527       Zr535   2.423       .  S
O527        C528   1.286       .  A
C528       C2428   1.492       .  S
Zr529       O530   2.434       .  S
Zr529       O531   2.436       .  S
Zr529       O537   2.398       .  S
Zr529       O538   2.398   1_554  S
Zr529       O541   2.380       .  S
Zr529       O539   2.356       .  S
O530        H550   0.990       .  S
O530        H555   0.990       .  S
O531        H551   0.990       .  S
Zr532       O533   2.434       .  S
Zr532       O534   2.437       .  S
Zr532       O538   2.401       .  S
Zr532       O537   2.403   1_556  S
Zr532       O542   2.346       .  S
Zr532       O540   2.392       .  S
O533        H549   0.990       .  S
O534        H548   0.990       .  S
O534        H558   0.990       .  S
Zr535       O538   2.399       .  S
Zr535       O540   2.394       .  S
Zr535       O541   2.386   1_556  S
Zr536       O537   2.411       .  S
Zr536       O539   2.379       .  S
Zr536       O542   2.374   1_554  S
O537        H545   0.966       .  S
O540        H544   0.963       .  S
O541        H546   0.961       .  S
O559       Zr571   2.419       .  S
O559        C561   1.284   1_455  A
O560       Zr597   2.419       .  S
O560        C561   1.284       .  A
C561       C2388   1.460       .  S
O562       Zr574   2.433   1_455  S
O562        C564   1.284       .  A
O563       Zr598   2.398       .  S
O563        C564   1.277       .  A
C564       C2378   1.462       .  S
O565       Zr574   2.397       .  S
O565        C567   1.279       .  A
O566       Zr597   2.427       .  S
O566        C567   1.288       .  A
C567       C2591   1.442       .  S
O568       Zr571   2.345       .  S
O568        C570   1.271       .  A
O569       Zr598   2.461       .  S
O569        C570   1.292       .  A
C570       C2438   1.458       .  S
Zr571       O572   2.434       .  S
Zr571       O573   2.437       .  S
Zr571       O577   2.346   1_455  S
Zr571       O578   2.357       .  S
Zr571       O601   2.376       .  S
Zr571       O603   2.315       .  S
O572        H615   0.990       .  S
O573        H614   0.990       .  S
O573        H618   0.990       .  S
Zr574       O575   2.439       .  S
Zr574       O576   2.434       .  S
Zr574       O578   2.338   1_655  S
Zr574       O577   2.368       .  S
Zr574       O602   2.355       .  S
Zr574       O604   2.343   1_655  S
O575        H616   0.989   1_655  S
O575        H619   0.990       .  S
O576        H609   0.990       .  S
O577       Zr597   2.386       .  S
O578       Zr598   2.394       .  S
O578        H605   0.965       .  S
O579       Zr591   2.505       .  S
O579        C581   1.298       .  A
O580       Zr598   2.409       .  S
O580        C581   1.283       .  A
C581       C2348   1.505       .  S
O582       Zr594   2.536       .  S
O582        C584   1.303       .  A
O583       Zr597   2.410       .  S
O583        C584   1.282       .  A
C584       C2341   1.520       .  S
O585       Zr594   2.486   1_455  S
O585        C587   1.296       .  A
O586       Zr598   2.450       .  S
O586        C587   1.291       .  A
C587       C2368   1.498       .  S
O588       Zr591   2.486       .  S
O588        C590   1.297       .  A
O589       Zr597   2.447       .  S
O589        C590   1.292   1_655  A
C590       C2358   1.503       .  S
Zr591       O592   2.439       .  S
Zr591       O593   2.435       .  S
Zr591       O599   2.398       .  S
Zr591       O600   2.408   1_455  S
Zr591       O603   2.380       .  S
Zr591       O601   2.366       .  S
O592        H612   0.990       .  S
O592        H617   0.989       .  S
O593        H613   0.990       .  S
Zr594       O595   2.433       .  S
Zr594       O596   2.438       .  S
Zr594       O600   2.394       .  S
Zr594       O599   2.416   1_655  S
Zr594       O604   2.369   1_655  S
Zr594       O602   2.357       .  S
O595        H611   0.990       .  S
O596        H610   0.990       .  S
O596        H620   0.990       .  S
Zr597       O600   2.399       .  S
Zr597       O602   2.387       .  S
Zr597       O603   2.377   1_655  S
Zr598       O599   2.413       .  S
Zr598       O601   2.378       .  S
Zr598       O604   2.377       .  S
O599        H607   0.966       .  S
O602        H606   0.958       .  S
O603        H608   0.961       .  S
O621       Zr633   2.371   1_556  S
O621        C623   1.273       .  A
O622       Zr659   2.439       .  S
O622        C623   1.288       .  A
C623       C2601   1.461       .  S
O624       Zr636   2.413       .  S
O624        C626   1.273       .  A
O625       Zr660   2.420       .  S
O625        C626   1.283   1_554  A
C626       C2451   1.459       .  S
O627       Zr636   2.428       .  S
O627        C629   1.286   1_455  A
O628       Zr659   2.390       .  S
O628        C629   1.278       .  A
C629       C2518   1.453       .  S
O630       Zr633   2.418   1_455  S
O630        C632   1.275       .  A
O631       Zr660   2.427       .  S
O631        C632   1.278       .  A
C632       C2381   1.469       .  S
Zr633       O634   2.443   1_655  S
Zr633       O635   2.449       .  S
Zr633       O639   2.349   1_554  S
Zr633       O640   2.352   1_655  S
Zr633       O663   2.341   1_655  S
Zr633       O665   2.362   1_554  S
O634        H677   0.990   1_554  S
O635        H676   0.990       .  S
O635        H680   0.991       .  S
Zr636       O637   2.440       .  S
Zr636       O638   2.435       .  S
Zr636       O640   2.369   1_556  S
Zr636       O639   2.354   1_455  S
Zr636       O664   2.341       .  S
Zr636       O666   2.356       .  S
O637        H678   0.988       .  S
O637        H681   0.990       .  S
O638        H671   0.990       .  S
O639       Zr659   2.379       .  S
O640       Zr660   2.411       .  S
O640        H667   0.964       .  S
O641       Zr653   2.498       .  S
O641        C643   1.299   1_655  A
O642       Zr660   2.427       .  S
O642        C643   1.287       .  A
C643       C2328   1.506       .  S
O644       Zr656   2.478       .  S
O644        C646   1.296   1_455  A
O645       Zr659   2.444       .  S
O645        C646   1.291       .  A
C646       C2308   1.504       .  S
O647       Zr656   2.522       .  S
O647        C649   1.301       .  A
O648       Zr660   2.402       .  S
O648        C649   1.280   1_554  A
C649       C2318   1.511       .  S
O650       Zr653   2.519   1_556  S
O650        C652   1.302       .  A
O651       Zr659   2.431       .  S
O651        C652   1.287       .  A
C652       C2301   1.510       .  S
Zr653       O654   2.437       .  S
Zr653       O655   2.436       .  S
Zr653       O661   2.406   1_654  S
Zr653       O662   2.403   1_554  S
Zr653       O665   2.382   1_554  S
Zr653       O663   2.355   1_655  S
O654        H674   0.984       .  S
O654        H679   1.012   1_554  S
O655        H675   0.991       .  S
Zr656       O657   2.434       .  S
Zr656       O658   2.437       .  S
Zr656       O662   2.413   1_455  S
Zr656       O661   2.399       .  S
Zr656       O666   2.346       .  S
Zr656       O664   2.399       .  S
O657        H673   0.990       .  S
O658        H672   0.990       .  S
O658        H682   0.990       .  S
Zr659       O662   2.395       .  S
Zr659       O664   2.393   1_655  S
Zr659       O665   2.378       .  S
Zr660       O661   2.404   1_554  S
Zr660       O663   2.369       .  S
Zr660       O666   2.376   1_554  S
O661        H669   0.966   1_556  S
O664        H668   0.963       .  S
O665        H670   0.963   1_556  S
O683       Zr695   2.384       .  S
O683        C685   1.278       .  A
O684       Zr721   2.420       .  S
O684        C685   1.286   1_554  A
C685       C2611   1.431       .  S
O686       Zr698   2.346       .  S
O686        C688   1.268   1_554  A
O687       Zr722   2.458       .  S
O687        C688   1.290       .  A
C688       C2461   1.476       .  S
O689       Zr698   2.438       .  S
O689        C691   1.287   1_455  A
O690       Zr721   2.404       .  S
O690        C691   1.280       .  A
C691       C2391   1.459       .  S
O692       Zr695   2.427   1_455  S
O692        C694   1.287       .  A
O693       Zr722   2.392       .  S
O693        C694   1.279       .  A
C694       C2531   1.458       .  S
Zr695       O696   2.435       .  S
Zr695       O697   2.436       .  S
Zr695       O701   2.373   1_556  S
Zr695       O702   2.342   1_655  S
Zr695       O725   2.331   1_655  S
Zr695       O727   2.356       .  S
O696        H739   0.990       .  S
O697        H738   0.990       .  S
O697        H742   0.990       .  S
Zr698       O699   2.434       .  S
Zr698       O700   2.434       .  S
Zr698       O702   2.359   1_554  S
Zr698       O701   2.334   1_455  S
Zr698       O726   2.314       .  S
Zr698       O728   2.378       .  S
O699        H740   0.990   1_554  S
O699        H743   0.990       .  S
O700        H733   0.990       .  S
O701       Zr721   2.386       .  S
O702       Zr722   2.390       .  S
O702        H729   0.966       .  S
O703       Zr715   2.497   1_455  S
O703        C705   1.299       .  A
O704       Zr722   2.454       .  S
O704        C705   1.292       .  A
C705       C2278   1.507       .  S
O706       Zr718   2.500       .  S
O706        C708   1.300       .  A
O707       Zr721   2.442       .  S
O707        C708   1.290   1_655  A
C708       C2288   1.510       .  S
O709       Zr718   2.521       .  S
O709        C711   1.300   1_554  A
O710       Zr722   2.397       .  S
O710        C711   1.279       .  A
C711       C2271   1.514       .  S
O712       Zr715   2.540       .  S
O712        C714   1.304       .  A
O713       Zr721   2.399       .  S
O713        C714   1.278   1_554  A
C714       C2261   1.519       .  S
Zr715       O716   2.435   1_655  S
Zr715       O717   2.436       .  S
Zr715       O723   2.420   1_655  S
Zr715       O724   2.397   1_656  S
Zr715       O727   2.363       .  S
Zr715       O725   2.367   1_655  S
O716        H736   0.990       .  S
O716        H741   0.990   1_455  S
O717        H737   0.990       .  S
Zr718       O719   2.434       .  S
Zr718       O720   2.438       .  S
Zr718       O724   2.412       .  S
Zr718       O723   2.401   1_554  S
Zr718       O728   2.362       .  S
Zr718       O726   2.380       .  S
O719        H735   0.990       .  S
O720        H734   0.990       .  S
O720        H744   0.990       .  S
Zr721       O724   2.391   1_655  S
Zr721       O726   2.373   1_655  S
Zr721       O727   2.388   1_554  S
Zr722       O723   2.409       .  S
Zr722       O725   2.366       .  S
Zr722       O728   2.380   1_556  S
O723        H731   0.966       .  S
O726        H730   0.961       .  S
O727        H732   0.961       .  S
O745       Zr757   2.401   1_556  S
O745        C747   1.272       .  A
O746       Zr783   2.411       .  S
O746        C747   1.278       .  A
C747       C2248   1.444       .  S
O748       Zr760   2.525       .  S
O748        C750   1.301       .  A
O749       Zr784   2.418       .  S
O749        C750   1.284       .  A
C750       C2198   1.517       .  S
O751       Zr760   2.515       .  S
O751        C753   1.301   1_554  A
O752       Zr783   2.432       .  S
O752        C753   1.287       .  A
C753       C2188   1.513       .  S
O754       Zr757   2.411       .  S
O754        C756   1.283       .  A
O755       Zr784   2.411       .  S
O755        C756   1.283       .  A
C756       C2228   1.457       .  S
Zr757       O758   2.439       .  S
Zr757       O759   2.448       .  S
Zr757       O763   2.362   1_554  S
Zr757       O764   2.344       .  S
Zr757       O787   2.332       .  S
Zr757       O789   2.361   1_554  S
O758        H801   0.990       .  S
O759        H800   0.989   1_554  S
O759        H804   0.990       .  S
Zr760       O761   2.438       .  S
Zr760       O762   2.435   1_554  S
Zr760       O764   2.366       .  S
Zr760       O763   2.357   1_554  S
Zr760       O788   2.408   1_554  S
Zr760       O790   2.406       .  S
O761        H802   0.990       .  S
O761        H805   0.990       .  S
O762        H795   0.990       .  S
O763       Zr783   2.369       .  S
O764       Zr784   2.374       .  S
O764        H791   0.958       .  S
O765       Zr777   2.413       .  S
O765        C767   1.284   1_556  A
O766       Zr784   2.412       .  S
O766        C767   1.283       .  A
C767       C2238   1.455       .  S
O768       Zr780   2.507       .  S
O768        C770   1.300       .  A
O769       Zr783   2.420       .  S
O769        C770   1.286       .  A
C770       C2208   1.511       .  S
O771       Zr780   2.512       .  S
O771        C773   1.301       .  A
O772       Zr784   2.416       .  S
O772        C773   1.286   1_554  A
C773       C2178   1.506       .  S
O774       Zr777   2.414       .  S
O774        C776   1.283       .  A
O775       Zr783   2.407       .  S
O775        C776   1.282       .  A
C776       C2218   1.449       .  S
Zr777       O778   2.437       .  S
Zr777       O779   2.435       .  S
Zr777       O785   2.345       .  S
Zr777       O786   2.345       .  S
Zr777       O789   2.358       .  S
Zr777       O787   2.363   1_556  S
O778        H798   0.990       .  S
O778        H803   0.990       .  S
O779        H799   0.990       .  S
Zr780       O781   2.436       .  S
Zr780       O782   2.435       .  S
Zr780       O786   2.361       .  S
Zr780       O785   2.384       .  S
Zr780       O790   2.403   1_556  S
Zr780       O788   2.416       .  S
O781        H797   0.990       .  S
O782        H796   0.990       .  S
O782        H806   0.990       .  S
Zr783       O786   2.376       .  S
Zr783       O788   2.404       .  S
Zr783       O789   2.404       .  S
Zr784       O785   2.389   1_554  S
Zr784       O787   2.377       .  S
Zr784       O790   2.390       .  S
O785        H793   0.964       .  S
O788        H792   0.966       .  S
O789        H794   0.965       .  S
O807       Zr819   2.374       .  S
O807        C809   1.275       .  A
O808       Zr845   2.445   1_545  S
O808        C809   1.289       .  A
C809       C2168   1.476       .  S
O810       Zr822   2.406       .  S
O810        C812   1.283       .  A
O811       Zr846   2.408       .  S
O811        C812   1.282       .  A
C812       C2158   1.456       .  S
O813       Zr822   2.455   1_565  S
O813        C815   1.291       .  A
O814       Zr845   2.371       .  S
O814        C815   1.276       .  A
C815       C2221   1.452       .  S
O816       Zr819   2.413       .  S
O816        C818   1.284       .  A
O817       Zr846   2.397       .  S
O817        C818   1.280       .  A
C818       C2148   1.459       .  S
Zr819       O820   2.434       .  S
Zr819       O821   2.438       .  S
Zr819       O825   2.361       .  S
Zr819       O826   2.342       .  S
Zr819       O849   2.329       .  S
Zr819       O851   2.359       .  S
O820        H863   0.990       .  S
O821        H862   0.990       .  S
O821        H866   0.990       .  S
Zr822       O823   2.435       .  S
Zr822       O824   2.433   1_545  S
Zr822       O826   2.365       .  S
Zr822       O825   2.344       .  S
Zr822       O850   2.340   1_545  S
Zr822       O852   2.367       .  S
O823        H864   0.990       .  S
O823        H867   0.990   1_545  S
O824        H857   0.990       .  S
O825       Zr845   2.388   1_545  S
O826       Zr846   2.392       .  S
O826        H853   0.966       .  S
O827       Zr839   2.497       .  S
O827        C829   1.298       .  A
O828       Zr846   2.434       .  S
O828        C829   1.287       .  A
C829       C2128   1.509       .  S
O830       Zr842   2.482   1_565  S
O830        C832   1.296       .  A
O831       Zr845   2.458       .  S
O831        C832   1.293       .  A
C832       C2141   1.505       .  S
O833       Zr842   2.514       .  S
O833        C835   1.299       .  A
O834       Zr846   2.415       .  S
O834        C835   1.283       .  A
C835       C2121   1.514       .  S
O836       Zr839   2.509       .  S
O836        C838   1.299       .  A
O837       Zr845   2.409   1_545  S
O837        C838   1.283       .  A
C838       C2108   1.510       .  S
Zr839       O840   2.435       .  S
Zr839       O841   2.436       .  S
Zr839       O847   2.414       .  S
Zr839       O848   2.399       .  S
Zr839       O851   2.379       .  S
Zr839       O849   2.358       .  S
O840        H860   0.990       .  S
O840        H865   0.990       .  S
O841        H861   0.990       .  S
Zr842       O843   2.435       .  S
Zr842       O844   2.437   1_545  S
Zr842       O848   2.410       .  S
Zr842       O847   2.398       .  S
Zr842       O852   2.354       .  S
Zr842       O850   2.381   1_545  S
O843        H859   0.990   1_545  S
O844        H858   0.990       .  S
O844        H868   0.990       .  S
Zr845       O848   2.390   1_565  S
Zr845       O850   2.383       .  S
Zr845       O851   2.382   1_565  S
Zr846       O847   2.397       .  S
Zr846       O849   2.360       .  S
Zr846       O852   2.373       .  S
O847        H855   0.966       .  S
O850        H854   0.962       .  S
O851        H856   0.963       .  S
O869       Zr881   2.502       .  S
O869        C871   1.298       .  A
O870       Zr907   2.423       .  S
O870        C871   1.284       .  A
C871       C2058   1.511       .  S
O872       Zr884   2.400       .  S
O872        C874   1.280       .  A
O873       Zr908   2.434       .  S
O873        C874   1.287   1_554  A
C874       C2098   1.472       .  S
O875       Zr884   2.407       .  S
O875        C877   1.284       .  A
O876       Zr907   2.399       .  S
O876        C877   1.280       .  A
C877       C2151   1.455       .  S
O878       Zr881   2.489       .  S
O878        C880   1.297   1_556  A
O879       Zr908   2.431       .  S
O879        C880   1.288       .  A
C880       C2038   1.505       .  S
Zr881       O882   2.436       .  S
Zr881       O883   2.435       .  S
Zr881       O887   2.354       .  S
Zr881       O888   2.381       .  S
Zr881       O911   2.399   1_556  S
Zr881       O913   2.404       .  S
O882        H925   0.990       .  S
O883        H924   0.990       .  S
O883        H928   0.990       .  S
Zr884       O885   2.436       .  S
Zr884       O886   2.436       .  S
Zr884       O888   2.352       .  S
Zr884       O887   2.348       .  S
Zr884       O912   2.342       .  S
Zr884       O914   2.362       .  S
O885        H926   0.990       .  S
O885        H929   0.990       .  S
O886        H919   0.990       .  S
O887       Zr907   2.363       .  S
O888       Zr908   2.378   1_556  S
O888        H915   0.963       .  S
O889       Zr901   2.511       .  S
O889        C891   1.300       .  A
O890       Zr908   2.414       .  S
O890        C891   1.285       .  A
C891       C2068   1.509       .  S
O892       Zr904   2.421   1_556  S
O892        C894   1.281       .  A
O893       Zr907   2.384       .  S
O893        C894   1.275       .  A
C894       C2088   1.446       .  S
O895       Zr904   2.430       .  S
O895        C897   1.286       .  A
O896       Zr908   2.414       .  S
O896        C897   1.285       .  A
C897       C2078   1.463       .  S
O898       Zr901   2.526       .  S
O898        C900   1.303   1_554  A
O899       Zr907   2.421       .  S
O899        C900   1.284       .  A
C900       C2048   1.517       .  S
Zr901       O902   2.438       .  S
Zr901       O903   2.435       .  S
Zr901       O909   2.376       .  S
Zr901       O910   2.354   1_554  S
Zr901       O913   2.405   1_554  S
Zr901       O911   2.410       .  S
O902        H922   0.990       .  S
O902        H927   0.990       .  S
O903        H923   0.990       .  S
Zr904       O905   2.434       .  S
Zr904       O906   2.434   1_554  S
Zr904       O910   2.356   1_554  S
Zr904       O909   2.358       .  S
Zr904       O914   2.360   1_554  S
Zr904       O912   2.357   1_554  S
O905        H921   0.990       .  S
O906        H920   0.990   1_556  S
O906        H930   0.990       .  S
Zr907       O910   2.373       .  S
Zr907       O912   2.400       .  S
Zr907       O913   2.393       .  S
Zr908       O909   2.393       .  S
Zr908       O911   2.394       .  S
Zr908       O914   2.386   1_554  S
O909        H917   0.961       .  S
O912        H916   0.966       .  S
O913        H918   0.966       .  S
O931       Zr943   2.411       .  S
O931        C933   1.283       .  A
O932       Zr969   2.416       .  S
O932        C933   1.284       .  A
C933       C2231   1.454       .  S
O934       Zr946   2.413       .  S
O934        C936   1.277       .  A
O935       Zr970   2.433       .  S
O935        C936   1.286       .  A
C936       C2081   1.477       .  S
O937       Zr946   2.424       .  S
O937        C939   1.285   1_545  A
O938       Zr969   2.396       .  S
O938        C939   1.280       .  A
C939       C2031   1.449       .  S
O940       Zr943   2.410   1_545  S
O940        C942   1.272       .  A
O941       Zr970   2.410       .  S
O941        C942   1.277       .  A
C942       C2021   1.443       .  S
Zr943       O944   2.434       .  S
Zr943       O945   2.438       .  S
Zr943       O949   2.352       .  S
Zr943       O950   2.357   1_565  S
Zr943       O973   2.366   1_565  S
Zr943       O975   2.356       .  S
O944        H987   0.990       .  S
O945        H986   0.990       .  S
O945        H990   0.990       .  S
Zr946       O947   2.436       .  S
Zr946       O948   2.433       .  S
Zr946       O950   2.355       .  S
Zr946       O949   2.362   1_545  S
Zr946       O974   2.337       .  S
Zr946       O976   2.361       .  S
O947        H988   0.990       .  S
O947        H991   0.990       .  S
O948        H981   0.990       .  S
O949       Zr969   2.386       .  S
O950       Zr970   2.411       .  S
O950        H977   0.966       .  S
O951       Zr963   2.496       .  S
O951        C953   1.298   1_565  A
O952       Zr970   2.429       .  S
O952        C953   1.288       .  A
C953       C1998   1.504       .  S
O954       Zr966   2.501       .  S
O954        C956   1.299       .  A
O955       Zr969   2.431       .  S
O955        C956   1.288   1_565  A
C956       C2011   1.500       .  S
O957       Zr966   2.511       .  S
O957        C959   1.300       .  A
O958       Zr970   2.404       .  S
O958        C959   1.282       .  A
C959       C1978   1.509       .  S
O960       Zr963   2.524       .  S
O960        C962   1.300       .  A
O961       Zr969   2.411       .  S
O961        C962   1.281       .  A
C962       C1988   1.517       .  S
Zr963       O964   2.434       .  S
Zr963       O965   2.436       .  S
Zr963       O971   2.405   1_565  S
Zr963       O972   2.399       .  S
Zr963       O975   2.367       .  S
Zr963       O973   2.368   1_565  S
O964        H984   0.990       .  S
O964        H989   0.990       .  S
O965        H985   0.990       .  S
Zr966       O967   2.434       .  S
Zr966       O968   2.437       .  S
Zr966       O972   2.403   1_545  S
Zr966       O971   2.403       .  S
Zr966       O976   2.355       .  S
Zr966       O974   2.383       .  S
O967        H983   0.990       .  S
O968        H982   0.990       .  S
O968        H992   0.990       .  S
Zr969       O972   2.389       .  S
Zr969       O974   2.383   1_565  S
Zr969       O975   2.385       .  S
Zr970       O971   2.407       .  S
Zr970       O973   2.375       .  S
Zr970       O976   2.375       .  S
O971        H979   0.966       .  S
O974        H978   0.962       .  S
O975        H980   0.958       .  S
O993      Zr1005   2.443       .  S
O993        C995   1.289   1_556  A
O994      Zr1031   2.383       .  S
O994        C995   1.278       .  A
C995       C2241   1.454       .  S
O996      Zr1008   2.397   1_556  S
O996        C998   1.280       .  A
O997      Zr1032   2.403       .  S
O997        C998   1.280       .  A
C998       C2091   1.441       .  S
O999      Zr1008   2.384       .  S
O999       C1001   1.277       .  A
O1000     Zr1031   2.414       .  S
O1000      C1001   1.283   1_565  A
C1001      C2018   1.442       .  S
O1002     Zr1005   2.431   1_545  S
O1002      C1004   1.288       .  A
O1003     Zr1032   2.391       .  S
O1003      C1004   1.279       .  A
C1004      C2161   1.457       .  S
Zr1005     O1006   2.434       .  S
Zr1005     O1007   2.436       .  S
Zr1005     O1011   2.349   1_565  S
Zr1005     O1012   2.357   1_565  S
Zr1005     O1035   2.351   1_565  S
Zr1005     O1037   2.347       .  S
O1006      H1049   0.990   1_565  S
O1007      H1048   0.990       .  S
O1007      H1052   0.990       .  S
Zr1008     O1009   2.436       .  S
Zr1008     O1010   2.436       .  S
Zr1008     O1012   2.351   1_554  S
Zr1008     O1011   2.345   1_554  S
Zr1008     O1036   2.353       .  S
Zr1008     O1038   2.341   1_554  S
O1009      H1050   0.990   1_554  S
O1009      H1053   0.990       .  S
O1010      H1043   0.990       .  S
O1011     Zr1031   2.383   1_546  S
O1012     Zr1032   2.389       .  S
O1012      H1039   0.966       .  S
O1013     Zr1025   2.509       .  S
O1013      C1015   1.299   1_565  A
O1014     Zr1032   2.409       .  S
O1014      C1015   1.281       .  A
C1015      C1958   1.507       .  S
O1016     Zr1028   2.492       .  S
O1016      C1018   1.296       .  A
O1017     Zr1031   2.422       .  S
O1017      C1018   1.285   1_565  A
C1018      C1968   1.498       .  S
O1019     Zr1028   2.501   1_556  S
O1019      C1021   1.298       .  A
O1020     Zr1032   2.431       .  S
O1020      C1021   1.286       .  A
C1021      C1951   1.509       .  S
O1022     Zr1025   2.499       .  S
O1022      C1024   1.298       .  A
O1023     Zr1031   2.430       .  S
O1023      C1024   1.287   1_554  A
C1024      C1938   1.504       .  S
Zr1025     O1026   2.437       .  S
Zr1025     O1027   2.434       .  S
Zr1025     O1033   2.413   1_565  S
Zr1025     O1034   2.408   1_556  S
Zr1025     O1037   2.388       .  S
Zr1025     O1035   2.358   1_565  S
O1026      H1046   0.989       .  S
O1026      H1051   0.989   1_565  S
O1027      H1047   0.990       .  S
Zr1028     O1029   2.434   1_554  S
Zr1028     O1030   2.438       .  S
Zr1028     O1034   2.405   1_545  S
Zr1028     O1033   2.404   1_554  S
Zr1028     O1038   2.359   1_554  S
Zr1028     O1036   2.381       .  S
O1029      H1045   0.990   1_556  S
O1030      H1044   0.990       .  S
O1030      H1054   0.990       .  S
Zr1031     O1034   2.386       .  S
Zr1031     O1036   2.380   1_565  S
Zr1031     O1037   2.388   1_554  S
Zr1032     O1033   2.396       .  S
Zr1032     O1035   2.375       .  S
Zr1032     O1038   2.361       .  S
O1033      H1041   0.966       .  S
O1036      H1040   0.964       .  S
O1037      H1042   0.964       .  S
O1055     Zr1067   2.447       .  S
O1055      C1057   1.288   1_545  A
O1056     Zr1093   2.385       .  S
O1056      C1057   1.277       .  A
C1057      C2028   1.452       .  S
O1058     Zr1070   2.400   1_545  S
O1058      C1060   1.270       .  A
O1059     Zr1094   2.412       .  S
O1059      C1060   1.280       .  A
C1060      C2171   1.459       .  S
O1061     Zr1070   2.386       .  S
O1061      C1063   1.276       .  A
O1062     Zr1093   2.408       .  S
O1062      C1063   1.283   1_554  A
C1063      C2251   1.429       .  S
O1064     Zr1067   2.413       .  S
O1064      C1066   1.273   1_554  A
O1065     Zr1094   2.439       .  S
O1065      C1066   1.285       .  A
C1066      C2101   1.458       .  S
Zr1067     O1068   2.435       .  S
Zr1067     O1069   2.438       .  S
Zr1067     O1073   2.361       .  S
Zr1067     O1074   2.368   1_554  S
Zr1067     O1097   2.372       .  S
Zr1067     O1099   2.346       .  S
O1068      H1111   0.990       .  S
O1069      H1110   0.990       .  S
O1069      H1114   0.990       .  S
Zr1070     O1071   2.436   1_565  S
Zr1070     O1072   2.434       .  S
Zr1070     O1074   2.357   1_565  S
Zr1070     O1073   2.367   1_566  S
Zr1070     O1098   2.359       .  S
Zr1070     O1100   2.349   1_565  S
O1071      H1112   0.990       .  S
O1071      H1115   0.990   1_545  S
O1072      H1105   0.990       .  S
O1073     Zr1093   2.388   1_545  S
O1074     Zr1094   2.414       .  S
O1074      H1101   0.965       .  S
O1075     Zr1087   2.516       .  S
O1075      C1077   1.300   1_554  A
O1076     Zr1094   2.392       .  S
O1076      C1077   1.278       .  A
C1077      C1898   1.504       .  S
O1078     Zr1090   2.524   1_565  S
O1078      C1080   1.302   1_556  A
O1079     Zr1093   2.409       .  S
O1079      C1080   1.282       .  A
C1080      C1911   1.510   1_554  S
O1081     Zr1090   2.507       .  S
O1081      C1083   1.300       .  A
O1082     Zr1094   2.424       .  S
O1082      C1083   1.286       .  A
C1083      C1921   1.510       .  S
O1084     Zr1087   2.510       .  S
O1084      C1086   1.300       .  A
O1085     Zr1093   2.429       .  S
O1085      C1086   1.287   1_565  A
C1086      C1928   1.514       .  S
Zr1087     O1088   2.437       .  S
Zr1087     O1089   2.434       .  S
Zr1087     O1095   2.409   1_554  S
Zr1087     O1096   2.408       .  S
Zr1087     O1099   2.385       .  S
Zr1087     O1097   2.357       .  S
O1088      H1108   0.989       .  S
O1088      H1113   0.989       .  S
O1089      H1109   0.990       .  S
Zr1090     O1091   2.433       .  S
Zr1090     O1092   2.437   1_545  S
Zr1090     O1096   2.400   1_556  S
Zr1090     O1095   2.408       .  S
Zr1090     O1100   2.357       .  S
Zr1090     O1098   2.372   1_545  S
O1091      H1107   0.990       .  S
O1092      H1106   0.990       .  S
O1092      H1116   0.990       .  S
Zr1093     O1096   2.387   1_565  S
Zr1093     O1098   2.380   1_554  S
Zr1093     O1099   2.386   1_565  S
Zr1094     O1095   2.407       .  S
Zr1094     O1097   2.381   1_556  S
Zr1094     O1100   2.371       .  S
O1095      H1103   0.966       .  S
O1098      H1102   0.960       .  S
O1099      H1104   0.961       .  S
O1117     Zr1129   2.401       .  S
O1117      C1119   1.281       .  A
O1118     Zr1155   2.424       .  S
O1118      C1119   1.286   1_655  A
C1119      C1891   1.448       .  S
O1120     Zr1132   2.401       .  S
O1120      C1122   1.274   1_655  A
O1121     Zr1156   2.418       .  S
O1121      C1122   1.284       .  A
C1122      C1881   1.462       .  S
O1123     Zr1132   2.411       .  S
O1123      C1125   1.282       .  A
O1124     Zr1155   2.403       .  S
O1124      C1125   1.282       .  A
C1125      C1858   1.446       .  S
O1126     Zr1129   2.405       .  S
O1126      C1128   1.283       .  A
O1127     Zr1156   2.422       .  S
O1127      C1128   1.285       .  A
C1128      C1868   1.449       .  S
Zr1129     O1130   2.435       .  S
Zr1129     O1131   2.436       .  S
Zr1129     O1135   2.367       .  S
Zr1129     O1136   2.354       .  S
Zr1129     O1159   2.351       .  S
Zr1129     O1161   2.349       .  S
O1130      H1173   0.990       .  S
O1131      H1172   0.990       .  S
O1131      H1176   0.990       .  S
Zr1132     O1133   2.437   1_655  S
Zr1132     O1134   2.435       .  S
Zr1132     O1136   2.340   1_655  S
Zr1132     O1135   2.360   1_655  S
Zr1132     O1160   2.336       .  S
Zr1132     O1162   2.359   1_655  S
O1133      H1174   0.990       .  S
O1133      H1177   0.990   1_455  S
O1134      H1167   0.990       .  S
O1135     Zr1155   2.390   1_455  S
O1136     Zr1156   2.394       .  S
O1136      H1163   0.965       .  S
O1137     Zr1149   2.498       .  S
O1137      C1139   1.298       .  A
O1138     Zr1156   2.431       .  S
O1138      C1139   1.288       .  A
C1139      C1818   1.506       .  S
O1140     Zr1152   2.507       .  S
O1140      C1142   1.300       .  A
O1141     Zr1155   2.438       .  S
O1141      C1142   1.290       .  A
C1142      C1848   1.516       .  S
O1143     Zr1152   2.510   1_455  S
O1143      C1145   1.299       .  A
O1144     Zr1156   2.414       .  S
O1144      C1145   1.283       .  A
C1145      C1831   1.512       .  S
O1146     Zr1149   2.512       .  S
O1146      C1148   1.300       .  A
O1147     Zr1155   2.421       .  S
O1147      C1148   1.286   1_655  A
C1148      C1841   1.514       .  S
Zr1149     O1150   2.435       .  S
Zr1149     O1151   2.436       .  S
Zr1149     O1157   2.403       .  S
Zr1149     O1158   2.404       .  S
Zr1149     O1161   2.362       .  S
Zr1149     O1159   2.369       .  S
O1150      H1170   0.990       .  S
O1150      H1175   0.990       .  S
O1151      H1171   0.990       .  S
Zr1152     O1153   2.434   1_655  S
Zr1152     O1154   2.437       .  S
Zr1152     O1158   2.404   1_655  S
Zr1152     O1157   2.407   1_655  S
Zr1152     O1162   2.355   1_655  S
Zr1152     O1160   2.379       .  S
O1153      H1169   0.990   1_455  S
O1154      H1168   0.990       .  S
O1154      H1178   0.990       .  S
Zr1155     O1158   2.391   1_655  S
Zr1155     O1160   2.381       .  S
Zr1155     O1161   2.381   1_655  S
Zr1156     O1157   2.405       .  S
Zr1156     O1159   2.370       .  S
Zr1156     O1162   2.373       .  S
O1157      H1165   0.966       .  S
O1160      H1164   0.959       .  S
O1161      H1166   0.961       .  S
O1179     Zr1191   2.451       .  S
O1179      C1181   1.290   1_545  A
O1180     Zr1217   2.375       .  S
O1180      C1181   1.276       .  A
C1181      C1801   1.447       .  S
O1182     Zr1194   2.427   1_545  S
O1182      C1184   1.286       .  A
O1183     Zr1218   2.400       .  S
O1183      C1184   1.279       .  A
C1184      C1811   1.464       .  S
O1185     Zr1194   2.410       .  S
O1185      C1187   1.276       .  A
O1186     Zr1217   2.412       .  S
O1186      C1187   1.280       .  A
C1187      C1861   1.462       .  S
O1188     Zr1191   2.417       .  S
O1188      C1190   1.284       .  A
O1189     Zr1218   2.382       .  S
O1189      C1190   1.277       .  A
C1190      C1791   1.437       .  S
Zr1191     O1192   2.434       .  S
Zr1191     O1193   2.437       .  S
Zr1191     O1197   2.344   1_545  S
Zr1191     O1198   2.368       .  S
Zr1191     O1221   2.362       .  S
Zr1191     O1223   2.345       .  S
O1192      H1235   0.990       .  S
O1193      H1234   0.990       .  S
O1193      H1238   0.990       .  S
Zr1194     O1195   2.438       .  S
Zr1194     O1196   2.440       .  S
Zr1194     O1198   2.348   1_565  S
Zr1194     O1197   2.359       .  S
Zr1194     O1222   2.359       .  S
Zr1194     O1224   2.341   1_565  S
O1195      H1236   0.990   1_565  S
O1195      H1239   0.990       .  S
O1196      H1229   0.990       .  S
O1197     Zr1217   2.388       .  S
O1198     Zr1218   2.391       .  S
O1198      H1225   0.966       .  S
O1199     Zr1211   2.506       .  S
O1199      C1201   1.298       .  A
O1200     Zr1218   2.414       .  S
O1200      C1201   1.283       .  A
C1201      C1748   1.511       .  S
O1202     Zr1214   2.513       .  S
O1202      C1204   1.299       .  A
O1203     Zr1217   2.403       .  S
O1203      C1204   1.280       .  A
C1204      C1778   1.510       .  S
O1205     Zr1214   2.512   1_545  S
O1205      C1207   1.300       .  A
O1206     Zr1218   2.423       .  S
O1206      C1207   1.284       .  A
C1207      C1771   1.511       .  S
O1208     Zr1211   2.495       .  S
O1208      C1210   1.297   1_545  A
O1209     Zr1217   2.436       .  S
O1209      C1210   1.289       .  A
C1210      C1758   1.510       .  S
Zr1211     O1212   2.437       .  S
Zr1211     O1213   2.435       .  S
Zr1211     O1219   2.411       .  S
Zr1211     O1220   2.407   1_545  S
Zr1211     O1223   2.384       .  S
Zr1211     O1221   2.360       .  S
O1212      H1232   0.989       .  S
O1212      H1237   0.990       .  S
O1213      H1233   0.990       .  S
Zr1214     O1215   2.434       .  S
Zr1214     O1216   2.437       .  S
Zr1214     O1220   2.408       .  S
Zr1214     O1219   2.413   1_565  S
Zr1214     O1224   2.360   1_565  S
Zr1214     O1222   2.376       .  S
O1215      H1231   0.990       .  S
O1216      H1230   0.990       .  S
O1216      H1240   0.990       .  S
Zr1217     O1220   2.383       .  S
Zr1217     O1222   2.395       .  S
Zr1217     O1223   2.381   1_565  S
Zr1218     O1219   2.393       .  S
Zr1218     O1221   2.373       .  S
Zr1218     O1224   2.361       .  S
O1219      H1227   0.966       .  S
O1222      H1226   0.962       .  S
O1223      H1228   0.963       .  S
O1241     Zr1253   2.453       .  S
O1241      C1243   1.289       .  A
O1242     Zr1279   2.373       .  S
O1242      C1243   1.275       .  A
C1243      C1871   1.450       .  S
O1244     Zr1256   2.391       .  S
O1244      C1246   1.267       .  A
O1245     Zr1280   2.443       .  S
O1245      C1246   1.284       .  A
C1246      C1721   1.463       .  S
O1247     Zr1256   2.350       .  S
O1247      C1249   1.270       .  A
O1248     Zr1279   2.411       .  S
O1248      C1249   1.280   1_565  A
C1249      C1731   1.435       .  S
O1250     Zr1253   2.413   1_545  S
O1250      C1252   1.272       .  A
O1251     Zr1280   2.426       .  S
O1251      C1252   1.283       .  A
C1252      C1741   1.454       .  S
Zr1253     O1254   2.434   1_565  S
Zr1253     O1255   2.436       .  S
Zr1253     O1259   2.346   1_565  S
Zr1253     O1260   2.375   1_565  S
Zr1253     O1283   2.367   1_565  S
Zr1253     O1285   2.348       .  S
O1254      H1297   0.990       .  S
O1255      H1296   0.990       .  S
O1255      H1300   0.990       .  S
Zr1256     O1257   2.446       .  S
Zr1256     O1258   2.435       .  S
Zr1256     O1260   2.349       .  S
Zr1256     O1259   2.356       .  S
Zr1256     O1284   2.354       .  S
Zr1256     O1286   2.337       .  S
O1257      H1298   0.988       .  S
O1257      H1301   0.990       .  S
O1258      H1291   0.990       .  S
O1259     Zr1279   2.386   1_545  S
O1260     Zr1280   2.410       .  S
O1260      H1287   0.961       .  S
O1261     Zr1273   2.505   1_545  S
O1261      C1263   1.299       .  A
O1262     Zr1280   2.411       .  S
O1262      C1263   1.285       .  A
C1263      C1681   1.506       .  S
O1264     Zr1276   2.520       .  S
O1264      C1266   1.301       .  A
O1265     Zr1279   2.413       .  S
O1265      C1266   1.283   1_565  A
C1266      C1708   1.506       .  S
O1267     Zr1276   2.502       .  S
O1267      C1269   1.299       .  A
O1268     Zr1280   2.419       .  S
O1268      C1269   1.286       .  A
C1269      C1688   1.505       .  S
O1270     Zr1273   2.484       .  S
O1270      C1272   1.295       .  A
O1271     Zr1279   2.434       .  S
O1271      C1272   1.288       .  A
C1272      C1698   1.505       .  S
Zr1273     O1274   2.438   1_565  S
Zr1273     O1275   2.434       .  S
Zr1273     O1281   2.405   1_565  S
Zr1273     O1282   2.405   1_565  S
Zr1273     O1285   2.397       .  S
Zr1273     O1283   2.348   1_565  S
O1274      H1294   0.989       .  S
O1274      H1299   0.989       .  S
O1275      H1295   0.990       .  S
Zr1276     O1277   2.433       .  S
Zr1276     O1278   2.437       .  S
Zr1276     O1282   2.400       .  S
Zr1276     O1281   2.414       .  S
Zr1276     O1286   2.355       .  S
Zr1276     O1284   2.383       .  S
O1277      H1293   0.990       .  S
O1278      H1292   0.990       .  S
O1278      H1302   0.990       .  S
Zr1279     O1282   2.385   1_565  S
Zr1279     O1284   2.389   1_565  S
Zr1279     O1285   2.385       .  S
Zr1280     O1281   2.412       .  S
Zr1280     O1283   2.381       .  S
Zr1280     O1286   2.371       .  S
O1281      H1289   0.965       .  S
O1284      H1288   0.963       .  S
O1285      H1290   0.964       .  S
O1303     Zr1315   2.523       .  S
O1303      C1305   1.301       .  A
O1304     Zr1341   2.412       .  S
O1304      C1305   1.282       .  A
C1305      C1628   1.515       .  S
O1306     Zr1318   2.437   1_455  S
O1306      C1308   1.288       .  A
O1307     Zr1342   2.388       .  S
O1307      C1308   1.279       .  A
C1308      C1661   1.455       .  S
O1309     Zr1318   2.411       .  S
O1309      C1311   1.283       .  A
O1310     Zr1341   2.386       .  S
O1310      C1311   1.278       .  A
C1311      C1788   1.436       .  S
O1312     Zr1315   2.496       .  S
O1312      C1314   1.298   1_655  A
O1313     Zr1342   2.440       .  S
O1313      C1314   1.290       .  A
C1314      C1648   1.512       .  S
Zr1315     O1316   2.436       .  S
Zr1315     O1317   2.435       .  S
Zr1315     O1321   2.354       .  S
Zr1315     O1322   2.390       .  S
Zr1315     O1345   2.413   1_655  S
Zr1315     O1347   2.408       .  S
O1316      H1359   0.990       .  S
O1317      H1358   0.990       .  S
O1317      H1362   0.990       .  S
Zr1318     O1319   2.437       .  S
Zr1318     O1320   2.434       .  S
Zr1318     O1322   2.342       .  S
Zr1318     O1321   2.352       .  S
Zr1318     O1346   2.366       .  S
Zr1318     O1348   2.350   1_655  S
O1319      H1360   0.990       .  S
O1319      H1363   0.990       .  S
O1320      H1353   0.990       .  S
O1321     Zr1341   2.377       .  S
O1322     Zr1342   2.391   1_655  S
O1322      H1349   0.964       .  S
O1323     Zr1335   2.492       .  S
O1323      C1325   1.296       .  A
O1324     Zr1342   2.426       .  S
O1324      C1325   1.285       .  A
C1325      C1638   1.490       .  S
O1326     Zr1338   2.395       .  S
O1326      C1328   1.281   1_455  A
O1327     Zr1341   2.415       .  S
O1327      C1328   1.282       .  A
C1328      C1671   1.462       .  S
O1329     Zr1338   2.374       .  S
O1329      C1331   1.276       .  A
O1330     Zr1342   2.442       .  S
O1330      C1331   1.289       .  A
C1331      C1718   1.471       .  S
O1332     Zr1335   2.504       .  S
O1332      C1334   1.298   1_455  A
O1333     Zr1341   2.428       .  S
O1333      C1334   1.285       .  A
C1334      C1618   1.511       .  S
Zr1335     O1336   2.438       .  S
Zr1335     O1337   2.434       .  S
Zr1335     O1343   2.381       .  S
Zr1335     O1344   2.356       .  S
Zr1335     O1347   2.405   1_455  S
Zr1335     O1345   2.403       .  S
O1336      H1356   0.990       .  S
O1336      H1361   0.990       .  S
O1337      H1357   0.990       .  S
Zr1338     O1339   2.433       .  S
Zr1338     O1340   2.435       .  S
Zr1338     O1344   2.338       .  S
Zr1338     O1343   2.350       .  S
Zr1338     O1348   2.347       .  S
Zr1338     O1346   2.335   1_455  S
O1339      H1355   0.990       .  S
O1340      H1354   0.990       .  S
O1340      H1364   0.990       .  S
Zr1341     O1344   2.356   1_655  S
Zr1341     O1346   2.391       .  S
Zr1341     O1347   2.394       .  S
Zr1342     O1343   2.380       .  S
Zr1342     O1345   2.392       .  S
Zr1342     O1348   2.384       .  S
O1343      H1351   0.962       .  S
O1346      H1350   0.966       .  S
O1347      H1352   0.966       .  S
O1365     Zr1377   2.516       .  S
O1365      C1367   1.301       .  A
O1366     Zr1403   2.415       .  S
O1366      C1367   1.283   1_655  A
C1367      C1591   1.510       .  S
O1368     Zr1380   2.373   1_545  S
O1368      C1370   1.274       .  A
O1369     Zr1404   2.391       .  S
O1369      C1370   1.277       .  A
C1370      C1728   1.425       .  S
O1371     Zr1380   2.396       .  S
O1371      C1373   1.272       .  A
O1372     Zr1403   2.438       .  S
O1372      C1373   1.283   1_655  A
C1373      C1878   1.470       .  S
O1374     Zr1377   2.516       .  S
O1374      C1376   1.302   1_565  A
O1375     Zr1404   2.435       .  S
O1375      C1376   1.288       .  A
C1376      C1581   1.512       .  S
Zr1377     O1378   2.436       .  S
Zr1377     O1379   2.435       .  S
Zr1377     O1383   2.349       .  S
Zr1377     O1384   2.381       .  S
Zr1377     O1407   2.407   1_565  S
Zr1377     O1409   2.414   1_455  S
O1378      H1421   0.990       .  S
O1379      H1420   0.990       .  S
O1379      H1424   0.990       .  S
Zr1380     O1381   2.443       .  S
Zr1380     O1382   2.439       .  S
Zr1380     O1384   2.335       .  S
Zr1380     O1383   2.336       .  S
Zr1380     O1408   2.345   1_455  S
Zr1380     O1410   2.349   1_565  S
O1381      H1422   0.990       .  S
O1381      H1425   0.991       .  S
O1382      H1415   0.990       .  S
O1383     Zr1403   2.371   1_455  S
O1384     Zr1404   2.380   1_565  S
O1384      H1411   0.962       .  S
O1385     Zr1397   2.505       .  S
O1385      C1387   1.299   1_655  A
O1386     Zr1404   2.427       .  S
O1386      C1387   1.286       .  A
C1387      C1611   1.500       .  S
O1388     Zr1400   2.413       .  S
O1388      C1390   1.282   1_545  A
O1389     Zr1403   2.411       .  S
O1389      C1390   1.282       .  A
C1390      C1798   1.447       .  S
O1391     Zr1400   2.414   1_455  S
O1391      C1393   1.283       .  A
O1392     Zr1404   2.407       .  S
O1392      C1393   1.282       .  A
C1393      C1658   1.459       .  S
O1394     Zr1397   2.500       .  S
O1394      C1396   1.299       .  A
O1395     Zr1403   2.428       .  S
O1395      C1396   1.287   1_565  A
C1396      C1598   1.500       .  S
Zr1397     O1398   2.438       .  S
Zr1397     O1399   2.434       .  S
Zr1397     O1405   2.386       .  S
Zr1397     O1406   2.368       .  S
Zr1397     O1409   2.409   1_545  S
Zr1397     O1407   2.406   1_655  S
O1398      H1418   0.990       .  S
O1398      H1423   0.990       .  S
O1399      H1419   0.990       .  S
Zr1400     O1401   2.437       .  S
Zr1400     O1402   2.438       .  S
Zr1400     O1406   2.345       .  S
Zr1400     O1405   2.352       .  S
Zr1400     O1410   2.353   1_655  S
Zr1400     O1408   2.362   1_545  S
O1401      H1417   0.990       .  S
O1402      H1416   0.990       .  S
O1402      H1426   0.990       .  S
Zr1403     O1406   2.376   1_565  S
Zr1403     O1408   2.398       .  S
Zr1403     O1409   2.410       .  S
Zr1404     O1405   2.389   1_455  S
Zr1404     O1407   2.387       .  S
Zr1404     O1410   2.390       .  S
O1405      H1413   0.964       .  S
O1408      H1412   0.965       .  S
O1409      H1414   0.966       .  S
O1427     Zr1439   2.399   1_465  S
O1427      C1429   1.277       .  A
O1428     Zr1465   2.418       .  S
O1428      C1429   1.282       .  A
C1429      C1888   1.464       .  S
O1430     Zr1442   2.412       .  S
O1430      C1432   1.284   1_455  A
O1431     Zr1466   2.410       .  S
O1431      C1432   1.282       .  A
C1432      C1668   1.461       .  S
O1433     Zr1442   2.400       .  S
O1433      C1435   1.282       .  A
O1434     Zr1465   2.411   1_545  S
O1434      C1435   1.284       .  A
C1435      C1738   1.460       .  S
O1436     Zr1439   2.396       .  S
O1436      C1438   1.280       .  A
O1437     Zr1466   2.427       .  S
O1437      C1438   1.285       .  A
C1438      C1808   1.461       .  S
Zr1439     O1440   2.434       .  S
Zr1439     O1441   2.439   1_545  S
Zr1439     O1445   2.356   1_655  S
Zr1439     O1446   2.356       .  S
Zr1439     O1469   2.337       .  S
Zr1439     O1471   2.350   1_645  S
O1440      H1483   0.990       .  S
O1441      H1482   0.989       .  S
O1441      H1486   0.990       .  S
Zr1442     O1443   2.435       .  S
Zr1442     O1444   2.434       .  S
Zr1442     O1446   2.350   1_455  S
Zr1442     O1445   2.352       .  S
Zr1442     O1470   2.356       .  S
Zr1442     O1472   2.341       .  S
O1443      H1484   0.990       .  S
O1443      H1487   0.990       .  S
O1444      H1477   0.990       .  S
O1445     Zr1465   2.389   1_545  S
O1446     Zr1466   2.389       .  S
O1446      H1473   0.966       .  S
O1447     Zr1459   2.508       .  S
O1447      C1449   1.299       .  A
O1448     Zr1466   2.418       .  S
O1448      C1449   1.283       .  A
C1449      C1541   1.508       .  S
O1450     Zr1462   2.515       .  S
O1450      C1452   1.302       .  A
O1451     Zr1465   2.424   1_545  S
O1451      C1452   1.286       .  A
C1452      C1561   1.502       .  S
O1453     Zr1462   2.512       .  S
O1453      C1455   1.300       .  A
O1454     Zr1466   2.418       .  S
O1454      C1455   1.283   1_655  A
C1455      C1548   1.511       .  S
O1456     Zr1459   2.510   1_465  S
O1456      C1458   1.300       .  A
O1457     Zr1465   2.419       .  S
O1457      C1458   1.286       .  A
C1458      C1571   1.513       .  S
Zr1459     O1460   2.438   1_655  S
Zr1459     O1461   2.434   1_545  S
Zr1459     O1467   2.412   1_655  S
Zr1459     O1468   2.404   1_655  S
Zr1459     O1471   2.376   1_645  S
Zr1459     O1469   2.359       .  S
O1460      H1480   0.989       .  S
O1460      H1485   0.989   1_455  S
O1461      H1481   0.990       .  S
Zr1462     O1463   2.434       .  S
Zr1462     O1464   2.437       .  S
Zr1462     O1468   2.404       .  S
Zr1462     O1467   2.410       .  S
Zr1462     O1472   2.360       .  S
Zr1462     O1470   2.373       .  S
O1463      H1479   0.990       .  S
O1464      H1478   0.990       .  S
O1464      H1488   0.990       .  S
Zr1465     O1468   2.393   1_565  S
Zr1465     O1470   2.386   1_565  S
Zr1465     O1471   2.385       .  S
Zr1466     O1467   2.409   1_655  S
Zr1466     O1469   2.366       .  S
Zr1466     O1472   2.373   1_655  S
O1467      H1475   0.965   1_455  S
O1470      H1474   0.963       .  S
O1471      H1476   0.963       .  S
C1489      C1490   1.373       .  D
C1489      C2331   1.503       .  S
C1489      C2371   1.505       .  S
C1490      C1608   1.510       .  S
C1490      C1651   1.506       .  S
C1491      C1492   1.372       .  D
C1491      C1931   1.510       .  S
C1491      C2008   1.505       .  S
C1492      C1601   1.504       .  S
C1492      C1761   1.506       .  S
C1493      C1494   1.370       .  D
C1493      C2291   1.509       .  S
C1493      C2361   1.503       .  S
C1494      C1588   1.507       .  S
C1494      C1828   1.508       .  S
C1495      C1496   1.368       .  D
C1495      C1971   1.502       .  S
C1495      C2001   1.508       .  S
C1496      C1578   1.514       .  S
C1496      C1711   1.514       .  S
C1497      C1498   1.367       .  D
C1497      C2651   1.510       .  S
C1497      C2921   1.505       .  S
C1498      C1641   1.500       .  S
C1498      C1691   1.502       .  S
C1499      C1500   1.372       .  D
C1499      C1631   1.511       .  S
C1499      C1751   1.507       .  S
C1500      C2731   1.511       .  S
C1500      C2931   1.515       .  S
C1501      C1502   1.369       .  D
C1501      C2641   1.506       .  S
C1501      C2778   1.509       .  S
C1502      C1701   1.502       .  S
C1502      C1821   1.506       .  S
C1503      C1504   1.373       .  D
C1503      C1961   1.506       .  S
C1503      C2118   1.509       .  S
C1504      C1558   1.513       .  S
C1504      C1678   1.503       .  S
C1505      C1506   1.371       .  D
C1505      C2321   1.508       .  S
C1505      C2431   1.502       .  S
C1506      C1948   1.506       .  S
C1506      C2051   1.513       .  S
C1507      C1508   1.371       .  D
C1507      C2268   1.511       .  S
C1507      C2421   1.509       .  S
C1508      C1941   1.507       .  S
C1508      C2181   1.507       .  S
C1509      C1510   1.373       .  D
C1509      C2791   1.509       .  S
C1509      C2858   1.506       .  S
C1510      C1991   1.510       .  S
C1510      C2201   1.512       .  S
C1511      C1512   1.374       .  D
C1511      C2851   1.515       .  S
C1511      C2908   1.508       .  S
C1512      C1981   1.505       .  S
C1512      C2071   1.508       .  S
C1513      C1514   1.369       .  D
C1513      C2691   1.510       .  S
C1513      C2901   1.509       .  S
C1514      C2061   1.506       .  S
C1514      C2131   1.506       .  S
C1515      C1516   1.371   1_655  D
C1515      C2311   1.503       .  S
C1515      C2478   1.502       .  S
C1516      C1551   1.509       .  S
C1516      C1621   1.504       .  S
C1517      C1518   1.370       .  D
C1517      C1901   1.498       .  S
C1517      C2041   1.505       .  S
C1518      C2298   1.513       .  S
C1518      C2541   1.507       .  S
C1519      C1520   1.366       .  D
C1519      C2631   1.500       .  S
C1519      C2838   1.507       .  S
C1520      C2351   1.507       .  S
C1520      C2411   1.503       .  S
C1521      C1522   1.375       .  D
C1521      C2741   1.510       .  S
C1521      C2831   1.506       .  S
C1522      C2338   1.518       .  S
C1522      C2561   1.514       .  S
C1523      C1524   1.368       .  D
C1523      C2401   1.502       .  S
C1523      C2471   1.512       .  S
C1524      C2621   1.497       .  S
C1524      C2681   1.508       .  S
C1525      C1526   1.374       .  D
C1525      C2281   1.508       .  S
C1525      C2488   1.509       .  S
C1526      C1568   1.508       .  S
C1526      C1838   1.510       .  S
C1527      C1528   1.371       .  D
C1527      C1918   1.505       .  S
C1527      C2111   1.505       .  S
C1528      C1538   1.505       .  S
C1528      C1768   1.506       .  S
C1529      C1530   1.375       .  D
C1529      C2258   1.516       .  S
C1529      C2548   1.516       .  S
C1530      C1908   1.512       .  S
C1530      C2191   1.517       .  S
C1531      C1532   1.371       .  D
C1531      C2668   1.506       .  S
C1531      C2721   1.509       .  S
C1532      C2501   1.513       .  S
C1532      C2571   1.508       .  S
C1533      C1534   1.380       .  D
C1533      C2708   1.516       .  S
C1533      C2761   1.513       .  S
C1534      C1781   1.509       .  S
C1534      C1851   1.520       .  S
C1535      C1536   1.373       .  D
C1535      C2138   1.508       .  S
C1535      C2211   1.508       .  S
C1536      C2658   1.511       .  S
C1536      C2768   1.510       .  S
C1537      C1538   1.406       .  A
C1537      C1542   1.406       .  A
C1537      F1544   1.357       .  S
C1538      C1539   1.405       .  A
C1539      C1540   1.409       .  A
C1539      F1546   1.357   1_545  S
C1540      C1541   1.415       .  A
C1540      F1545   1.357   1_545  S
C1541      C1542   1.416       .  A
C1542      F1543   1.358       .  S
C1547      C1548   1.415       .  A
C1547      C1552   1.411       .  A
C1547      F1554   1.357       .  S
C1548      C1549   1.417   1_455  A
C1549      C1550   1.405       .  A
C1549      F1556   1.357       .  S
C1550      C1551   1.405   1_655  A
C1550      F1555   1.357       .  S
C1551      C1552   1.408       .  A
C1552      F1553   1.357       .  S
C1557      C1558   1.410       .  A
C1557      C1562   1.410       .  A
C1557      F1564   1.357   1_545  S
C1558      C1559   1.409       .  A
C1559      C1560   1.409       .  A
C1559      F1566   1.356       .  S
C1560      C1561   1.411       .  A
C1560      F1565   1.358       .  S
C1561      C1562   1.412       .  A
C1562      F1563   1.357   1_545  S
C1567      C1568   1.403       .  A
C1567      C1572   1.406       .  A
C1567      F1574   1.358       .  S
C1568      C1569   1.409       .  A
C1569      C1570   1.410       .  A
C1569      F1576   1.356   1_455  S
C1570      C1571   1.415       .  A
C1570      F1575   1.357   1_455  S
C1571      C1572   1.419       .  A
C1572      F1573   1.358       .  S
C1577      C1578   1.409   1_565  A
C1577      C1582   1.413       .  A
C1577      F1584   1.357       .  S
C1578      C1579   1.409       .  A
C1579      C1580   1.411       .  A
C1579      F1586   1.356       .  S
C1580      C1581   1.415       .  A
C1580      F1585   1.358       .  S
C1581      C1582   1.416   1_545  A
C1582      F1583   1.357       .  S
C1587      C1588   1.408       .  A
C1587      C1592   1.409       .  A
C1587      F1594   1.355       .  S
C1588      C1589   1.405   1_455  A
C1589      C1590   1.405       .  A
C1589      F1596   1.357       .  S
C1590      C1591   1.415   1_655  A
C1590      F1595   1.357       .  S
C1591      C1592   1.416       .  A
C1592      F1593   1.357       .  S
C1597      C1598   1.412   1_565  A
C1597      C1602   1.407       .  A
C1597      F1604   1.357       .  S
C1598      C1599   1.413       .  A
C1599      C1600   1.407       .  A
C1599      F1606   1.357       .  S
C1600      C1601   1.406       .  A
C1600      F1605   1.357       .  S
C1601      C1602   1.408   1_545  A
C1602      F1603   1.357       .  S
C1607      C1608   1.407   1_655  A
C1607      C1612   1.409       .  A
C1607      F1614   1.357       .  S
C1608      C1609   1.410       .  A
C1609      C1610   1.407       .  A
C1609      F1616   1.357       .  S
C1610      C1611   1.410       .  A
C1610      F1615   1.357       .  S
C1611      C1612   1.412   1_455  A
C1612      F1613   1.358       .  S
C1617      C1618   1.417       .  A
C1617      C1622   1.404       .  A
C1617      F1624   1.357       .  S
C1618      C1619   1.416   1_655  A
C1619      C1620   1.412       .  A
C1619      F1626   1.357       .  S
C1620      C1621   1.408       .  A
C1620      F1625   1.357       .  S
C1621      C1622   1.403   1_455  A
C1622      F1623   1.357       .  S
C1627      C1628   1.419       .  A
C1627      C1632   1.404       .  A
C1627      F1634   1.358       .  S
C1628      C1629   1.414       .  A
C1629      C1630   1.415       .  A
C1629      F1636   1.357       .  S
C1630      C1631   1.411       .  A
C1630      F1635   1.356       .  S
C1631      C1632   1.403       .  A
C1632      F1633   1.356       .  S
C1637      C1638   1.407       .  A
C1637      C1642   1.408       .  A
C1637      F1644   1.357       .  S
C1638      C1639   1.411       .  A
C1639      C1640   1.402       .  A
C1639      F1646   1.358       .  S
C1640      C1641   1.403       .  A
C1640      F1645   1.356       .  S
C1641      C1642   1.411       .  A
C1642      F1643   1.357       .  S
C1647      C1648   1.417       .  A
C1647      C1652   1.406       .  A
C1647      F1654   1.358       .  S
C1648      C1649   1.417   1_455  A
C1649      C1650   1.410       .  A
C1649      F1656   1.357       .  S
C1650      C1651   1.408   1_655  A
C1650      F1655   1.357       .  S
C1651      C1652   1.403       .  A
C1652      F1653   1.358       .  S
C1657      C1658   1.404       .  A
C1657      C1662   1.393       .  A
C1657      F1664   1.358       .  S
C1658      C1659   1.406       .  A
C1659      C1660   1.386       .  A
C1659      F1666   1.358       .  S
C1660      C1661   1.399       .  A
C1660      F1665   1.359       .  S
C1661      C1662   1.404       .  A
C1662      F1663   1.355       .  S
C1667      C1668   1.403   1_455  A
C1667      C1672   1.381       .  A
C1667      F1674   1.358       .  S
C1668      C1669   1.405       .  A
C1669      C1670   1.399       .  A
C1669      F1676   1.355       .  S
C1670      C1671   1.403       .  A
C1670      F1675   1.357       .  S
C1671      C1672   1.404   1_655  A
C1672      F1673   1.359       .  S
C1677      C1678   1.405       .  A
C1677      C1682   1.408       .  A
C1677      F1684   1.357   1_545  S
C1678      C1679   1.406       .  A
C1679      C1680   1.406       .  A
C1679      F1686   1.357       .  S
C1680      C1681   1.415       .  A
C1680      F1685   1.358       .  S
C1681      C1682   1.414       .  A
C1682      F1683   1.357   1_545  S
C1687      C1688   1.415       .  A
C1687      C1692   1.403       .  A
C1687      F1694   1.357       .  S
C1688      C1689   1.415       .  A
C1689      C1690   1.407       .  A
C1689      F1696   1.357       .  S
C1690      C1691   1.404       .  A
C1690      F1695   1.357       .  S
C1691      C1692   1.405       .  A
C1692      F1693   1.357       .  S
C1697      C1698   1.415       .  A
C1697      C1702   1.406       .  A
C1697      F1704   1.358       .  S
C1698      C1699   1.416       .  A
C1699      C1700   1.406       .  A
C1699      F1706   1.357       .  S
C1700      C1701   1.405       .  A
C1700      F1705   1.357       .  S
C1701      C1702   1.405       .  A
C1702      F1703   1.357       .  S
C1707      C1708   1.414       .  A
C1707      C1712   1.413       .  A
C1707      F1714   1.357       .  S
C1708      C1709   1.413   1_545  A
C1709      C1710   1.407       .  A
C1709      F1716   1.358       .  S
C1710      C1711   1.410   1_565  A
C1710      F1715   1.357       .  S
C1711      C1712   1.409       .  A
C1712      F1713   1.356       .  S
C1717      C1718   1.413       .  A
C1717      C1722   1.385       .  A
C1717      F1724   1.359       .  S
C1718      C1719   1.402       .  A
C1719      C1720   1.396       .  A
C1719      F1726   1.358       .  S
C1720      C1721   1.409       .  A
C1720      F1725   1.352       .  S
C1721      C1722   1.395       .  A
C1722      F1723   1.353       .  S
C1727      C1728   1.398       .  A
C1727      C1732   1.391       .  A
C1727      F1734   1.347       .  S
C1728      C1729   1.396       .  A
C1729      C1730   1.374       .  A
C1729      F1736   1.359       .  S
C1730      C1731   1.405       .  A
C1730      F1735   1.360       .  S
C1731      C1732   1.394       .  A
C1732      F1733   1.352   1_545  S
C1737      C1738   1.405       .  A
C1737      C1742   1.381       .  A
C1737      F1744   1.359       .  S
C1738      C1739   1.406       .  A
C1739      C1740   1.395       .  A
C1739      F1746   1.358   1_545  S
C1740      C1741   1.403       .  A
C1740      F1745   1.352       .  S
C1741      C1742   1.397       .  A
C1742      F1743   1.351       .  S
C1747      C1748   1.416       .  A
C1747      C1752   1.404       .  A
C1747      F1754   1.358       .  S
C1748      C1749   1.416       .  A
C1749      C1750   1.412       .  A
C1749      F1756   1.357       .  S
C1750      C1751   1.407       .  A
C1750      F1755   1.357       .  S
C1751      C1752   1.405       .  A
C1752      F1753   1.356       .  S
C1757      C1758   1.417       .  A
C1757      C1762   1.408       .  A
C1757      F1764   1.358       .  S
C1758      C1759   1.416   1_565  A
C1759      C1760   1.406       .  A
C1759      F1766   1.357       .  S
C1760      C1761   1.406       .  A
C1760      F1765   1.357       .  S
C1761      C1762   1.405   1_545  A
C1762      F1763   1.357       .  S
C1767      C1768   1.403       .  A
C1767      C1772   1.405       .  A
C1767      F1774   1.357       .  S
C1768      C1769   1.409       .  A
C1769      C1770   1.410       .  A
C1769      F1776   1.357   1_545  S
C1770      C1771   1.414       .  A
C1770      F1775   1.357   1_545  S
C1771      C1772   1.419       .  A
C1772      F1773   1.357       .  S
C1777      C1778   1.413       .  A
C1777      C1782   1.409       .  A
C1777      F1784   1.357       .  S
C1778      C1779   1.419       .  A
C1779      C1780   1.404       .  A
C1779      F1786   1.358       .  S
C1780      C1781   1.402       .  A
C1780      F1785   1.358       .  S
C1781      C1782   1.411       .  A
C1782      F1783   1.356       .  S
C1787      C1788   1.399       .  A
C1787      C1792   1.383       .  A
C1787      F1794   1.356       .  S
C1788      C1789   1.399       .  A
C1789      C1790   1.387       .  A
C1789      F1796   1.359       .  S
C1790      C1791   1.400       .  A
C1790      F1795   1.356       .  S
C1791      C1792   1.396       .  A
C1792      F1793   1.356       .  S
C1797      C1798   1.398       .  A
C1797      C1802   1.391       .  A
C1797      F1804   1.355       .  S
C1798      C1799   1.405       .  A
C1799      C1800   1.390       .  A
C1799      F1806   1.359       .  S
C1800      C1801   1.397       .  A
C1800      F1805   1.358       .  S
C1801      C1802   1.400       .  A
C1802      F1803   1.354       .  S
C1807      C1808   1.405       .  A
C1807      C1812   1.382       .  A
C1807      F1814   1.357       .  S
C1808      C1809   1.403       .  A
C1809      C1810   1.401       .  A
C1809      F1816   1.355       .  S
C1810      C1811   1.406       .  A
C1810      F1815   1.355       .  S
C1811      C1812   1.400       .  A
C1812      F1813   1.359       .  S
C1817      C1818   1.415       .  A
C1817      C1822   1.408       .  A
C1817      F1824   1.358       .  S
C1818      C1819   1.413       .  A
C1819      C1820   1.406       .  A
C1819      F1826   1.357       .  S
C1820      C1821   1.407       .  A
C1820      F1825   1.356       .  S
C1821      C1822   1.406       .  A
C1822      F1823   1.357       .  S
C1827      C1828   1.405       .  A
C1827      C1832   1.406       .  A
C1827      F1834   1.356       .  S
C1828      C1829   1.407   1_455  A
C1829      C1830   1.410       .  A
C1829      F1836   1.356       .  S
C1830      C1831   1.415   1_655  A
C1830      F1835   1.357       .  S
C1831      C1832   1.417       .  A
C1832      F1833   1.358       .  S
C1837      C1838   1.410       .  A
C1837      C1842   1.411       .  A
C1837      F1844   1.357       .  S
C1838      C1839   1.402       .  A
C1839      C1840   1.405       .  A
C1839      F1846   1.357   1_455  S
C1840      C1841   1.421       .  A
C1840      F1845   1.358   1_455  S
C1841      C1842   1.414       .  A
C1842      F1843   1.357       .  S
C1847      C1848   1.416       .  A
C1847      C1852   1.411       .  A
C1847      F1854   1.357       .  S
C1848      C1849   1.418       .  A
C1849      C1850   1.407       .  A
C1849      F1856   1.358       .  S
C1850      C1851   1.408       .  A
C1850      F1855   1.354       .  S
C1851      C1852   1.411       .  A
C1852      F1853   1.357       .  S
C1857      C1858   1.404       .  A
C1857      C1862   1.392       .  A
C1857      F1864   1.358       .  S
C1858      C1859   1.393       .  A
C1859      C1860   1.383       .  A
C1859      F1866   1.356       .  S
C1860      C1861   1.410       .  A
C1860      F1865   1.356       .  S
C1861      C1862   1.404       .  A
C1862      F1863   1.357       .  S
C1867      C1868   1.397       .  A
C1867      C1872   1.393       .  A
C1867      F1874   1.353       .  S
C1868      C1869   1.406       .  A
C1869      C1870   1.389       .  A
C1869      F1876   1.359       .  S
C1870      C1871   1.398       .  A
C1870      F1875   1.358       .  S
C1871      C1872   1.400       .  A
C1872      F1873   1.352       .  S
C1877      C1878   1.410       .  A
C1877      C1882   1.379       .  A
C1877      F1884   1.351       .  S
C1878      C1879   1.402   1_455  A
C1879      C1880   1.397       .  A
C1879      F1886   1.357       .  S
C1880      C1881   1.412   1_655  A
C1880      F1885   1.357       .  S
C1881      C1882   1.397       .  A
C1882      F1883   1.360       .  S
C1887      C1888   1.403       .  A
C1887      C1892   1.393       .  A
C1887      F1894   1.358       .  S
C1888      C1889   1.413   1_455  A
C1889      C1890   1.384       .  A
C1889      F1896   1.357       .  S
C1890      C1891   1.391   1_655  A
C1890      F1895   1.356       .  S
C1891      C1892   1.406       .  A
C1892      F1893   1.358       .  S
C1897      C1898   1.419       .  A
C1897      C1902   1.399       .  A
C1897      F1904   1.358       .  S
C1898      C1899   1.411   1_556  A
C1899      C1900   1.410       .  A
C1899      F1906   1.357       .  S
C1900      C1901   1.409   1_554  A
C1900      F1905   1.357       .  S
C1901      C1902   1.399       .  A
C1902      F1903   1.358       .  S
C1907      C1908   1.407   1_554  A
C1907      C1912   1.408       .  A
C1907      F1914   1.357       .  S
C1908      C1909   1.408       .  A
C1909      C1910   1.413       .  A
C1909      F1916   1.357       .  S
C1910      C1911   1.414       .  A
C1910      F1915   1.357       .  S
C1911      C1912   1.416   1_556  A
C1912      F1913   1.358       .  S
C1917      C1918   1.403       .  A
C1917      C1922   1.406       .  A
C1917      F1924   1.358       .  S
C1918      C1919   1.408       .  A
C1919      C1920   1.407       .  A
C1919      F1926   1.357   1_545  S
C1920      C1921   1.414       .  A
C1920      F1925   1.357   1_545  S
C1921      C1922   1.419       .  A
C1922      F1923   1.358       .  S
C1927      C1928   1.414       .  A
C1927      C1932   1.411       .  A
C1927      F1934   1.357       .  S
C1928      C1929   1.420   1_545  A
C1929      C1930   1.404       .  A
C1929      F1936   1.357       .  S
C1930      C1931   1.402   1_565  A
C1930      F1935   1.357       .  S
C1931      C1932   1.411       .  A
C1932      F1933   1.357       .  S
C1937      C1938   1.413   1_554  A
C1937      C1942   1.407       .  A
C1937      F1944   1.358       .  S
C1938      C1939   1.414       .  A
C1939      C1940   1.407       .  A
C1939      F1946   1.358       .  S
C1940      C1941   1.407       .  A
C1940      F1945   1.356       .  S
C1941      C1942   1.407   1_556  A
C1942      F1943   1.357       .  S
C1947      C1948   1.406   1_554  A
C1947      C1952   1.410   1_554  A
C1947      F1954   1.357       .  S
C1948      C1949   1.406       .  A
C1949      C1950   1.406       .  A
C1949      F1956   1.357       .  S
C1950      C1951   1.415       .  A
C1950      F1955   1.357       .  S
C1951      C1952   1.416       .  A
C1952      F1953   1.357   1_556  S
C1957      C1958   1.415       .  A
C1957      C1962   1.405       .  A
C1957      F1964   1.358       .  S
C1958      C1959   1.414   1_545  A
C1959      C1960   1.410       .  A
C1959      F1966   1.357       .  S
C1960      C1961   1.406   1_565  A
C1960      F1965   1.357       .  S
C1961      C1962   1.406       .  A
C1962      F1963   1.357       .  S
C1967      C1968   1.412   1_565  A
C1967      C1972   1.406       .  A
C1967      F1974   1.358       .  S
C1968      C1969   1.414       .  A
C1969      C1970   1.406       .  A
C1969      F1976   1.358       .  S
C1970      C1971   1.405       .  A
C1970      F1975   1.357       .  S
C1971      C1972   1.407   1_545  A
C1972      F1973   1.356       .  S
C1977      C1978   1.420       .  A
C1977      C1982   1.404       .  A
C1977      F1984   1.358       .  S
C1978      C1979   1.413       .  A
C1979      C1980   1.408       .  A
C1979      F1986   1.357       .  S
C1980      C1981   1.408       .  A
C1980      F1985   1.356       .  S
C1981      C1982   1.401       .  A
C1982      F1983   1.358       .  S
C1987      C1988   1.421       .  A
C1987      C1992   1.406       .  A
C1987      F1994   1.358       .  S
C1988      C1989   1.414       .  A
C1989      C1990   1.413       .  A
C1989      F1996   1.357       .  S
C1990      C1991   1.411       .  A
C1990      F1995   1.357       .  S
C1991      C1992   1.401       .  A
C1992      F1993   1.357       .  S
C1997      C1998   1.415   1_565  A
C1997      C2002   1.408       .  A
C1997      F2004   1.358       .  S
C1998      C1999   1.413       .  A
C1999      C2000   1.407       .  A
C1999      F2006   1.357       .  S
C2000      C2001   1.409       .  A
C2000      F2005   1.357       .  S
C2001      C2002   1.408   1_545  A
C2002      F2003   1.356       .  S
C2007      C2008   1.404       .  A
C2007      C2012   1.407       .  A
C2007      F2014   1.358       .  S
C2008      C2009   1.408   1_545  A
C2009      C2010   1.407       .  A
C2009      F2016   1.357       .  S
C2010      C2011   1.411   1_565  A
C2010      F2015   1.358       .  S
C2011      C2012   1.414       .  A
C2012      F2013   1.358       .  S
C2017      C2018   1.402       .  A
C2017      C2022   1.386       .  A
C2017      F2024   1.359       .  S
C2018      C2019   1.398       .  A
C2019      C2020   1.389       .  A
C2019      F2026   1.354       .  S
C2020      C2021   1.394       .  A
C2020      F2025   1.346       .  S
C2021      C2022   1.397       .  A
C2022      F2023   1.353       .  S
C2027      C2028   1.400   1_545  A
C2027      C2032   1.385       .  A
C2027      F2034   1.359       .  S
C2028      C2029   1.403       .  A
C2029      C2030   1.395       .  A
C2029      F2036   1.355       .  S
C2030      C2031   1.402       .  A
C2030      F2035   1.358       .  S
C2031      C2032   1.402   1_565  A
C2032      F2033   1.358       .  S
C2037      C2038   1.415       .  A
C2037      C2042   1.407       .  A
C2037      F2044   1.358       .  S
C2038      C2039   1.414   1_554  A
C2039      C2040   1.405       .  A
C2039      F2046   1.357       .  S
C2040      C2041   1.407       .  A
C2040      F2045   1.357       .  S
C2041      C2042   1.405   1_556  A
C2042      F2043   1.357       .  S
C2047      C2048   1.420       .  A
C2047      C2052   1.406       .  A
C2047      F2054   1.357       .  S
C2048      C2049   1.414   1_556  A
C2049      C2050   1.415       .  A
C2049      F2056   1.357       .  S
C2050      C2051   1.411   1_554  A
C2050      F2055   1.357       .  S
C2051      C2052   1.404       .  A
C2052      F2053   1.356       .  S
C2057      C2058   1.417       .  A
C2057      C2062   1.404       .  A
C2057      F2064   1.358       .  S
C2058      C2059   1.415       .  A
C2059      C2060   1.411       .  A
C2059      F2066   1.357       .  S
C2060      C2061   1.408       .  A
C2060      F2065   1.357       .  S
C2061      C2062   1.404       .  A
C2062      F2063   1.356       .  S
C2067      C2068   1.413       .  A
C2067      C2072   1.410       .  A
C2067      F2074   1.357       .  S
C2068      C2069   1.419       .  A
C2069      C2070   1.401       .  A
C2069      F2076   1.358       .  S
C2070      C2071   1.402       .  A
C2070      F2075   1.357       .  S
C2071      C2072   1.411       .  A
C2072      F2073   1.357       .  S
C2077      C2078   1.398       .  A
C2077      C2082   1.389       .  A
C2077      F2084   1.359       .  S
C2078      C2079   1.407       .  A
C2079      C2080   1.395       .  A
C2079      F2086   1.358       .  S
C2080      C2081   1.406       .  A
C2080      F2085   1.358       .  S
C2081      C2082   1.414       .  A
C2082      F2083   1.356       .  S
C2087      C2088   1.398       .  A
C2087      C2092   1.380       .  A
C2087      F2094   1.356       .  S
C2088      C2089   1.405       .  A
C2089      C2090   1.391       .  A
C2089      F2096   1.359       .  S
C2090      C2091   1.399       .  A
C2090      F2095   1.356       .  S
C2091      C2092   1.398       .  A
C2092      F2093   1.353       .  S
C2097      C2098   1.407   1_554  A
C2097      C2102   1.401       .  A
C2097      F2104   1.356       .  S
C2098      C2099   1.409       .  A
C2099      C2100   1.386       .  A
C2099      F2106   1.359       .  S
C2100      C2101   1.398       .  A
C2100      F2105   1.356       .  S
C2101      C2102   1.405   1_556  A
C2102      F2103   1.357       .  S
C2107      C2108   1.413       .  A
C2107      C2112   1.410       .  A
C2107      F2114   1.357       .  S
C2108      C2109   1.420       .  A
C2109      C2110   1.402       .  A
C2109      F2116   1.357   1_545  S
C2110      C2111   1.400       .  A
C2110      F2115   1.357   1_545  S
C2111      C2112   1.410       .  A
C2112      F2113   1.357       .  S
C2117      C2118   1.409       .  A
C2117      C2122   1.413       .  A
C2117      F2124   1.357   1_545  S
C2118      C2119   1.403       .  A
C2119      C2120   1.405       .  A
C2119      F2126   1.357       .  S
C2120      C2121   1.419       .  A
C2120      F2125   1.357       .  S
C2121      C2122   1.414       .  A
C2122      F2123   1.357   1_545  S
C2127      C2128   1.416       .  A
C2127      C2132   1.408       .  A
C2127      F2134   1.357       .  S
C2128      C2129   1.415       .  A
C2129      C2130   1.406       .  A
C2129      F2136   1.357       .  S
C2130      C2131   1.407       .  A
C2130      F2135   1.356       .  S
C2131      C2132   1.405       .  A
C2132      F2133   1.357       .  S
C2137      C2138   1.410       .  A
C2137      C2142   1.411       .  A
C2137      F2144   1.355       .  S
C2138      C2139   1.404       .  A
C2139      C2140   1.406       .  A
C2139      F2146   1.357       .  S
C2140      C2141   1.416       .  A
C2140      F2145   1.358       .  S
C2141      C2142   1.411       .  A
C2142      F2143   1.357       .  S
C2147      C2148   1.405       .  A
C2147      C2152   1.397       .  A
C2147      F2154   1.357       .  S
C2148      C2149   1.404       .  A
C2149      C2150   1.380       .  A
C2149      F2156   1.358       .  S
C2150      C2151   1.401       .  A
C2150      F2155   1.359       .  S
C2151      C2152   1.403       .  A
C2152      F2153   1.357       .  S
C2157      C2158   1.402       .  A
C2157      C2162   1.395       .  A
C2157      F2164   1.357       .  S
C2158      C2159   1.403       .  A
C2159      C2160   1.383       .  A
C2159      F2166   1.359   1_545  S
C2160      C2161   1.401       .  A
C2160      F2165   1.357   1_545  S
C2161      C2162   1.405       .  A
C2162      F2163   1.356       .  S
C2167      C2168   1.405       .  A
C2167      C2172   1.397       .  A
C2167      F2174   1.356   1_545  S
C2168      C2169   1.417       .  A
C2169      C2170   1.381       .  A
C2169      F2176   1.360       .  S
C2170      C2171   1.396       .  A
C2170      F2175   1.357       .  S
C2171      C2172   1.408       .  A
C2172      F2173   1.358   1_545  S
C2177      C2178   1.413       .  A
C2177      C2182   1.409       .  A
C2177      F2184   1.357       .  S
C2178      C2179   1.416   1_556  A
C2179      C2180   1.405       .  A
C2179      F2186   1.358       .  S
C2180      C2181   1.404   1_554  A
C2180      F2185   1.357       .  S
C2181      C2182   1.409       .  A
C2182      F2183   1.356       .  S
C2187      C2188   1.416   1_554  A
C2187      C2192   1.411       .  A
C2187      F2194   1.357       .  S
C2188      C2189   1.413       .  A
C2189      C2190   1.411       .  A
C2189      F2196   1.357       .  S
C2190      C2191   1.410       .  A
C2190      F2195   1.357       .  S
C2191      C2192   1.408   1_556  A
C2192      F2193   1.356       .  S
C2197      C2198   1.420       .  A
C2197      C2202   1.408       .  A
C2197      F2204   1.358       .  S
C2198      C2199   1.416       .  A
C2199      C2200   1.413       .  A
C2199      F2206   1.357       .  S
C2200      C2201   1.410       .  A
C2200      F2205   1.357       .  S
C2201      C2202   1.403       .  A
C2202      F2203   1.357       .  S
C2207      C2208   1.415       .  A
C2207      C2212   1.410       .  A
C2207      F2214   1.357       .  S
C2208      C2209   1.417       .  A
C2209      C2210   1.405       .  A
C2209      F2216   1.358       .  S
C2210      C2211   1.405       .  A
C2210      F2215   1.355       .  S
C2211      C2212   1.408       .  A
C2212      F2213   1.357       .  S
C2217      C2218   1.402       .  A
C2217      C2222   1.388       .  A
C2217      F2224   1.357       .  S
C2218      C2219   1.402       .  A
C2219      C2220   1.394       .  A
C2219      F2226   1.358       .  S
C2220      C2221   1.404       .  A
C2220      F2225   1.359       .  S
C2221      C2222   1.400       .  A
C2222      F2223   1.358       .  S
C2227      C2228   1.398       .  A
C2227      C2232   1.387       .  A
C2227      F2234   1.358       .  S
C2228      C2229   1.410       .  A
C2229      C2230   1.386       .  A
C2229      F2236   1.358       .  S
C2230      C2231   1.397       .  A
C2230      F2235   1.358       .  S
C2231      C2232   1.409       .  A
C2232      F2233   1.358       .  S
C2237      C2238   1.402       .  A
C2237      C2242   1.395       .  A
C2237      F2244   1.358       .  S
C2238      C2239   1.405       .  A
C2239      C2240   1.386       .  A
C2239      F2246   1.359       .  S
C2240      C2241   1.400       .  A
C2240      F2245   1.359       .  S
C2241      C2242   1.405       .  A
C2242      F2243   1.358       .  S
C2247      C2248   1.400   1_554  A
C2247      C2252   1.371       .  A
C2247      F2254   1.346       .  S
C2248      C2249   1.398       .  A
C2249      C2250   1.394       .  A
C2249      F2256   1.356       .  S
C2250      C2251   1.406       .  A
C2250      F2255   1.354       .  S
C2251      C2252   1.388   1_556  A
C2252      F2253   1.358       .  S
C2257      C2258   1.403   1_554  A
C2257      C2262   1.408       .  A
C2257      F2264   1.357       .  S
C2258      C2259   1.412       .  A
C2259      C2260   1.414       .  A
C2259      F2266   1.356       .  S
C2260      C2261   1.414       .  A
C2260      F2265   1.357       .  S
C2261      C2262   1.422   1_556  A
C2262      F2263   1.358       .  S
C2267      C2268   1.403       .  A
C2267      C2272   1.405       .  A
C2267      F2274   1.357       .  S
C2268      C2269   1.411   1_556  A
C2269      C2270   1.413       .  A
C2269      F2276   1.355       .  S
C2270      C2271   1.413   1_554  A
C2270      F2275   1.357       .  S
C2271      C2272   1.419       .  A
C2272      F2273   1.358       .  S
C2277      C2278   1.415       .  A
C2277      C2282   1.407       .  A
C2277      F2284   1.358   1_455  S
C2278      C2279   1.413       .  A
C2279      C2280   1.411       .  A
C2279      F2286   1.357       .  S
C2280      C2281   1.409       .  A
C2280      F2285   1.357       .  S
C2281      C2282   1.405       .  A
C2282      F2283   1.358   1_455  S
C2287      C2288   1.417   1_655  A
C2287      C2292   1.407       .  A
C2287      F2294   1.357       .  S
C2288      C2289   1.416       .  A
C2289      C2290   1.408       .  A
C2289      F2296   1.357       .  S
C2290      C2291   1.408       .  A
C2290      F2295   1.357       .  S
C2291      C2292   1.405   1_455  A
C2292      F2293   1.355       .  S
C2297      C2298   1.409       .  A
C2297      C2302   1.412       .  A
C2297      F2304   1.357       .  S
C2298      C2299   1.407   1_556  A
C2299      C2300   1.411       .  A
C2299      F2306   1.357       .  S
C2300      C2301   1.413   1_554  A
C2300      F2305   1.357       .  S
C2301      C2302   1.414       .  A
C2302      F2303   1.357       .  S
C2307      C2308   1.416   1_455  A
C2307      C2312   1.403       .  A
C2307      F2314   1.358       .  S
C2308      C2309   1.414       .  A
C2309      C2310   1.407       .  A
C2309      F2316   1.357       .  S
C2310      C2311   1.405       .  A
C2310      F2315   1.357       .  S
C2311      C2312   1.405   1_655  A
C2312      F2313   1.357       .  S
C2317      C2318   1.415       .  A
C2317      C2322   1.413       .  A
C2317      F2324   1.357       .  S
C2318      C2319   1.418   1_556  A
C2319      C2320   1.403       .  A
C2319      F2326   1.358       .  S
C2320      C2321   1.404   1_554  A
C2320      F2325   1.357       .  S
C2321      C2322   1.407       .  A
C2322      F2323   1.357       .  S
C2327      C2328   1.414   1_655  A
C2327      C2332   1.410       .  A
C2327      F2334   1.357       .  S
C2328      C2329   1.416       .  A
C2329      C2330   1.402       .  A
C2329      F2336   1.357       .  S
C2330      C2331   1.402       .  A
C2330      F2335   1.357       .  S
C2331      C2332   1.409   1_455  A
C2332      F2333   1.357       .  S
C2337      C2338   1.403       .  A
C2337      C2342   1.407       .  A
C2337      F2344   1.356       .  S
C2338      C2339   1.414       .  A
C2339      C2340   1.415       .  A
C2339      F2346   1.357       .  S
C2340      C2341   1.413       .  A
C2340      F2345   1.357       .  S
C2341      C2342   1.422       .  A
C2342      F2343   1.358       .  S
C2347      C2348   1.414       .  A
C2347      C2352   1.407       .  A
C2347      F2354   1.358       .  S
C2348      C2349   1.414       .  A
C2349      C2350   1.410       .  A
C2349      F2356   1.357       .  S
C2350      C2351   1.408       .  A
C2350      F2355   1.357       .  S
C2351      C2352   1.407       .  A
C2352      F2353   1.357       .  S
C2357      C2358   1.411   1_655  A
C2357      C2362   1.406       .  A
C2357      F2364   1.357       .  S
C2358      C2359   1.417       .  A
C2359      C2360   1.405       .  A
C2359      F2366   1.357       .  S
C2360      C2361   1.403       .  A
C2360      F2365   1.357       .  S
C2361      C2362   1.408   1_455  A
C2362      F2363   1.356       .  S
C2367      C2368   1.414   1_655  A
C2367      C2372   1.404       .  A
C2367      F2374   1.358       .  S
C2368      C2369   1.409       .  A
C2369      C2370   1.408       .  A
C2369      F2376   1.357       .  S
C2370      C2371   1.410       .  A
C2370      F2375   1.357       .  S
C2371      C2372   1.404   1_455  A
C2372      F2373   1.358       .  S
C2377      C2378   1.396       .  A
C2377      C2382   1.369       .  A
C2377      F2384   1.357   1_455  S
C2378      C2379   1.410       .  A
C2379      C2380   1.408       .  A
C2379      F2386   1.357       .  S
C2380      C2381   1.407       .  A
C2380      F2385   1.356       .  S
C2381      C2382   1.401       .  A
C2382      F2383   1.346   1_455  S
C2387      C2388   1.404   1_455  A
C2387      C2392   1.388       .  A
C2387      F2394   1.358       .  S
C2388      C2389   1.403       .  A
C2389      C2390   1.399       .  A
C2389      F2396   1.356       .  S
C2390      C2391   1.403       .  A
C2390      F2395   1.356       .  S
C2391      C2392   1.402   1_655  A
C2392      F2393   1.359       .  S
C2397      C2398   1.413       .  A
C2397      C2402   1.405       .  A
C2397      F2404   1.358       .  S
C2398      C2399   1.411       .  A
C2399      C2400   1.408       .  A
C2399      F2406   1.357       .  S
C2400      C2401   1.407       .  A
C2400      F2405   1.357       .  S
C2401      C2402   1.405       .  A
C2402      F2403   1.356       .  S
C2407      C2408   1.415       .  A
C2407      C2412   1.401       .  A
C2407      F2414   1.358       .  S
C2408      C2409   1.417       .  A
C2409      C2410   1.411       .  A
C2409      F2416   1.357       .  S
C2410      C2411   1.409       .  A
C2410      F2415   1.357       .  S
C2411      C2412   1.406       .  A
C2412      F2413   1.357       .  S
C2417      C2418   1.419   1_554  A
C2417      C2422   1.405       .  A
C2417      F2424   1.358       .  S
C2418      C2419   1.414       .  A
C2419      C2420   1.411       .  A
C2419      F2426   1.357       .  S
C2420      C2421   1.409       .  A
C2420      F2425   1.357       .  S
C2421      C2422   1.404   1_556  A
C2422      F2423   1.355       .  S
C2427      C2428   1.411       .  A
C2427      C2432   1.404       .  A
C2427      F2434   1.358   1_556  S
C2428      C2429   1.408       .  A
C2429      C2430   1.406       .  A
C2429      F2436   1.357       .  S
C2430      C2431   1.409       .  A
C2430      F2435   1.357       .  S
C2431      C2432   1.405       .  A
C2432      F2433   1.356   1_556  S
C2437      C2438   1.393       .  A
C2437      C2442   1.392       .  A
C2437      F2444   1.353       .  S
C2438      C2439   1.412       .  A
C2439      C2440   1.389       .  A
C2439      F2446   1.359       .  S
C2440      C2441   1.394       .  A
C2440      F2445   1.353       .  S
C2441      C2442   1.395       .  A
C2442      F2443   1.335       .  S
C2447      C2448   1.408       .  A
C2447      C2452   1.399       .  A
C2447      F2454   1.358       .  S
C2448      C2449   1.415   1_556  A
C2449      C2450   1.382       .  A
C2449      F2456   1.357       .  S
C2450      C2451   1.397   1_554  A
C2450      F2455   1.359       .  S
C2451      C2452   1.407       .  A
C2452      F2453   1.356       .  S
C2457      C2458   1.391   1_554  A
C2457      C2462   1.375       .  A
C2457      F2464   1.360       .  S
C2458      C2459   1.411       .  A
C2459      C2460   1.400       .  A
C2459      F2466   1.354       .  S
C2460      C2461   1.402       .  A
C2460      F2465   1.357       .  S
C2461      C2462   1.422   1_556  A
C2462      F2463   1.360       .  S
C2467      C2468   1.417       .  A
C2467      C2472   1.406       .  A
C2467      F2474   1.358       .  S
C2468      C2469   1.416       .  A
C2469      C2470   1.413       .  A
C2469      F2476   1.357       .  S
C2470      C2471   1.408       .  A
C2470      F2475   1.357       .  S
C2471      C2472   1.405       .  A
C2472      F2473   1.357       .  S
C2477      C2478   1.410       .  A
C2477      C2482   1.410       .  A
C2477      F2484   1.356       .  S
C2478      C2479   1.403   1_655  A
C2479      C2480   1.403       .  A
C2479      F2486   1.358       .  S
C2480      C2481   1.413   1_455  A
C2480      F2485   1.358       .  S
C2481      C2482   1.409       .  A
C2482      F2483   1.357       .  S
C2487      C2488   1.409       .  A
C2487      C2492   1.410       .  A
C2487      F2494   1.357   1_455  S
C2488      C2489   1.404       .  A
C2489      C2490   1.406       .  A
C2489      F2496   1.357       .  S
C2490      C2491   1.418       .  A
C2490      F2495   1.357       .  S
C2491      C2492   1.415       .  A
C2492      F2493   1.357   1_455  S
C2497      C2498   1.414       .  A
C2497      C2502   1.407       .  A
C2497      F2504   1.358       .  S
C2498      C2499   1.413       .  A
C2499      C2500   1.413       .  A
C2499      F2506   1.357       .  S
C2500      C2501   1.410       .  A
C2500      F2505   1.356       .  S
C2501      C2502   1.408       .  A
C2502      F2503   1.357       .  S
C2507      C2508   1.403       .  A
C2507      C2512   1.391       .  A
C2507      F2514   1.349       .  S
C2508      C2509   1.398       .  A
C2509      C2510   1.382       .  A
C2509      F2516   1.356       .  S
C2510      C2511   1.408       .  A
C2510      F2515   1.360       .  S
C2511      C2512   1.399       .  A
C2512      F2513   1.357       .  S
C2517      C2518   1.404       .  A
C2517      C2522   1.396       .  A
C2517      F2524   1.356       .  S
C2518      C2519   1.401       .  A
C2519      C2520   1.383       .  A
C2519      F2526   1.359       .  S
C2520      C2521   1.402       .  A
C2520      F2525   1.359       .  S
C2521      C2522   1.404       .  A
C2522      F2523   1.358       .  S
C2527      C2528   1.403       .  A
C2527      C2532   1.399       .  A
C2527      F2534   1.358       .  S
C2528      C2529   1.402       .  A
C2529      C2530   1.381       .  A
C2529      F2536   1.358       .  S
C2530      C2531   1.401       .  A
C2530      F2535   1.356       .  S
C2531      C2532   1.406       .  A
C2532      F2533   1.358       .  S
C2537      C2538   1.415   1_554  A
C2537      C2542   1.403       .  A
C2537      F2544   1.358       .  S
C2538      C2539   1.416       .  A
C2539      C2540   1.413       .  A
C2539      F2546   1.357       .  S
C2540      C2541   1.410       .  A
C2540      F2545   1.357       .  S
C2541      C2542   1.405   1_556  A
C2542      F2543   1.357       .  S
C2547      C2548   1.412   1_554  A
C2547      C2552   1.416       .  A
C2547      F2554   1.357       .  S
C2548      C2549   1.402       .  A
C2549      C2550   1.408       .  A
C2549      F2556   1.357       .  S
C2550      C2551   1.421       .  A
C2550      F2555   1.358       .  S
C2551      C2552   1.415   1_556  A
C2552      F2553   1.357       .  S
C2557      C2558   1.413       .  A
C2557      C2562   1.417       .  A
C2557      F2564   1.357       .  S
C2558      C2559   1.422       .  A
C2559      C2560   1.406       .  A
C2559      F2566   1.358       .  S
C2560      C2561   1.401       .  A
C2560      F2565   1.358       .  S
C2561      C2562   1.413       .  A
C2562      F2563   1.357       .  S
C2567      C2568   1.414       .  A
C2567      C2572   1.408       .  A
C2567      F2574   1.358       .  S
C2568      C2569   1.414       .  A
C2569      C2570   1.409       .  A
C2569      F2576   1.357       .  S
C2570      C2571   1.407       .  A
C2570      F2575   1.357       .  S
C2571      C2572   1.408       .  A
C2572      F2573   1.356       .  S
C2577      C2578   1.398       .  A
C2577      C2582   1.393       .  A
C2577      F2584   1.351       .  S
C2578      C2579   1.398       .  A
C2579      C2580   1.378       .  A
C2579      F2586   1.360       .  S
C2580      C2581   1.402       .  A
C2580      F2585   1.360       .  S
C2581      C2582   1.398       .  A
C2582      F2583   1.353       .  S
C2587      C2588   1.403       .  A
C2587      C2592   1.399       .  A
C2587      F2594   1.356       .  S
C2588      C2589   1.411       .  A
C2589      C2590   1.375       .  A
C2589      F2596   1.343       .  S
C2590      C2591   1.384       .  A
C2590      F2595   1.359       .  S
C2591      C2592   1.408       .  A
C2592      F2593   1.358       .  S
C2597      C2598   1.396       .  A
C2597      C2602   1.389   1_554  A
C2597      F2604   1.356       .  S
C2598      C2599   1.399   1_554  A
C2599      C2600   1.391       .  A
C2599      F2606   1.342       .  S
C2600      C2601   1.398       .  A
C2600      F2605   1.356       .  S
C2601      C2602   1.412       .  A
C2602      F2603   1.359   1_556  S
C2607      C2608   1.415   1_554  A
C2607      C2612   1.373       .  A
C2607      F2614   1.360       .  S
C2608      C2609   1.404       .  A
C2609      C2610   1.397       .  A
C2609      F2616   1.354       .  S
C2610      C2611   1.404       .  A
C2610      F2615   1.357       .  S
C2611      C2612   1.391   1_556  A
C2612      F2613   1.360       .  S
C2617      C2618   1.409       .  A
C2617      C2622   1.404       .  A
C2617      F2624   1.358       .  S
C2618      C2619   1.413       .  A
C2619      C2620   1.404       .  A
C2619      F2626   1.358       .  S
C2620      C2621   1.404       .  A
C2620      F2625   1.357       .  S
C2621      C2622   1.407       .  A
C2622      F2623   1.357       .  S
C2627      C2628   1.413       .  A
C2627      C2632   1.406       .  A
C2627      F2634   1.357       .  S
C2628      C2629   1.416       .  A
C2629      C2630   1.405       .  A
C2629      F2636   1.358       .  S
C2630      C2631   1.403       .  A
C2630      F2635   1.357       .  S
C2631      C2632   1.407       .  A
C2632      F2633   1.356       .  S
C2637      C2638   1.415       .  A
C2637      C2642   1.414       .  A
C2637      F2644   1.357       .  S
C2638      C2639   1.418       .  A
C2639      C2640   1.403       .  A
C2639      F2646   1.358       .  S
C2640      C2641   1.401       .  A
C2640      F2645   1.357       .  S
C2641      C2642   1.409       .  A
C2642      F2643   1.357       .  S
C2647      C2648   1.411       .  A
C2647      C2652   1.411       .  A
C2647      F2654   1.357       .  S
C2648      C2649   1.413       .  A
C2649      C2650   1.408       .  A
C2649      F2656   1.358       .  S
C2650      C2651   1.407       .  A
C2650      F2655   1.356       .  S
C2651      C2652   1.410       .  A
C2652      F2653   1.357       .  S
C2657      C2658   1.409       .  A
C2657      C2662   1.414       .  A
C2657      F2664   1.356       .  S
C2658      C2659   1.404       .  A
C2659      C2660   1.405       .  A
C2659      F2666   1.357       .  S
C2660      C2661   1.419       .  A
C2660      F2665   1.358       .  S
C2661      C2662   1.415       .  A
C2662      F2663   1.357       .  S
C2667      C2668   1.407       .  A
C2667      C2672   1.408       .  A
C2667      F2674   1.356       .  S
C2668      C2669   1.403       .  A
C2669      C2670   1.406       .  A
C2669      F2676   1.358       .  S
C2670      C2671   1.414       .  A
C2670      F2675   1.358       .  S
C2671      C2672   1.416       .  A
C2672      F2673   1.357       .  S
C2677      C2678   1.417       .  A
C2677      C2682   1.408       .  A
C2677      F2684   1.358       .  S
C2678      C2679   1.415       .  A
C2679      C2680   1.409       .  A
C2679      F2686   1.357       .  S
C2680      C2681   1.408       .  A
C2680      F2685   1.357       .  S
C2681      C2682   1.404       .  A
C2682      F2683   1.357       .  S
C2687      C2688   1.413       .  A
C2687      C2692   1.407       .  A
C2687      F2694   1.358       .  S
C2688      C2689   1.412       .  A
C2689      C2690   1.411       .  A
C2689      F2696   1.357       .  S
C2690      C2691   1.408       .  A
C2690      F2695   1.356       .  S
C2691      C2692   1.408       .  A
C2692      F2693   1.357       .  S
C2697      C2698   1.404       .  A
C2697      C2702   1.393       .  A
C2697      F2704   1.357       .  S
C2698      C2699   1.400       .  A
C2699      C2700   1.387       .  A
C2699      F2706   1.358       .  S
C2700      C2701   1.404       .  A
C2700      F2705   1.359       .  S
C2701      C2702   1.403       .  A
C2702      F2703   1.358       .  S
C2707      C2708   1.410       .  A
C2707      C2712   1.406       .  A
C2707      F2714   1.357       .  S
C2708      C2709   1.411       .  A
C2709      C2710   1.410       .  A
C2709      F2716   1.354       .  S
C2710      C2711   1.412       .  A
C2710      F2715   1.357       .  S
C2711      C2712   1.414       .  A
C2712      F2713   1.358       .  S
C2717      C2718   1.414       .  A
C2717      C2722   1.407       .  A
C2717      F2724   1.357       .  S
C2718      C2719   1.412       .  A
C2719      C2720   1.405       .  A
C2719      F2726   1.358       .  S
C2720      C2721   1.409       .  A
C2720      F2725   1.357       .  S
C2721      C2722   1.407       .  A
C2722      F2723   1.355       .  S
C2727      C2728   1.414       .  A
C2727      C2732   1.413       .  A
C2727      F2734   1.357       .  S
C2728      C2729   1.420       .  A
C2729      C2730   1.407       .  A
C2729      F2736   1.358       .  S
C2730      C2731   1.404       .  A
C2730      F2735   1.357       .  S
C2731      C2732   1.410       .  A
C2732      F2733   1.356       .  S
C2737      C2738   1.416       .  A
C2737      C2742   1.408       .  A
C2737      F2744   1.357       .  S
C2738      C2739   1.417       .  A
C2739      C2740   1.407       .  A
C2739      F2746   1.358       .  S
C2740      C2741   1.405       .  A
C2740      F2745   1.357       .  S
C2741      C2742   1.409       .  A
C2742      F2743   1.357       .  S
C2747      C2748   1.402       .  A
C2747      C2752   1.380       .  A
C2747      F2754   1.356       .  S
C2748      C2749   1.401       .  A
C2749      C2750   1.400       .  A
C2749      F2756   1.354       .  S
C2750      C2751   1.399       .  A
C2750      F2755   1.348       .  S
C2751      C2752   1.400       .  A
C2752      F2753   1.359       .  S
C2757      C2758   1.416       .  A
C2757      C2762   1.406       .  A
C2757      F2764   1.358       .  S
C2758      C2759   1.415       .  A
C2759      C2760   1.413       .  A
C2759      F2766   1.357       .  S
C2760      C2761   1.411       .  A
C2760      F2765   1.356       .  S
C2761      C2762   1.403       .  A
C2762      F2763   1.358       .  S
C2767      C2768   1.405       .  A
C2767      C2772   1.407       .  A
C2767      F2774   1.357       .  S
C2768      C2769   1.408       .  A
C2769      C2770   1.413       .  A
C2769      F2776   1.356       .  S
C2770      C2771   1.415       .  A
C2770      F2775   1.357       .  S
C2771      C2772   1.418       .  A
C2772      F2773   1.358       .  S
C2777      C2778   1.409       .  A
C2777      C2782   1.409       .  A
C2777      F2784   1.356       .  S
C2778      C2779   1.405       .  A
C2779      C2780   1.408       .  A
C2779      F2786   1.357       .  S
C2780      C2781   1.415       .  A
C2780      F2785   1.358       .  S
C2781      C2782   1.412       .  A
C2782      F2783   1.358       .  S
C2787      C2788   1.421       .  A
C2787      C2792   1.405       .  A
C2787      F2794   1.358       .  S
C2788      C2789   1.414       .  A
C2789      C2790   1.411       .  A
C2789      F2796   1.357       .  S
C2790      C2791   1.410       .  A
C2790      F2795   1.357       .  S
C2791      C2792   1.402       .  A
C2792      F2793   1.357       .  S
C2797      C2798   1.397       .  A
C2797      C2802   1.384       .  A
C2797      F2804   1.359       .  S
C2798      C2799   1.403       .  A
C2799      C2800   1.393       .  A
C2799      F2806   1.355       .  S
C2800      C2801   1.396       .  A
C2800      F2805   1.349       .  S
C2801      C2802   1.407       .  A
C2802      F2803   1.359       .  S
C2807      C2808   1.405       .  A
C2807      C2812   1.394       .  A
C2807      F2814   1.359       .  S
C2808      C2809   1.402       .  A
C2809      C2810   1.385       .  A
C2809      F2816   1.358       .  S
C2810      C2811   1.401       .  A
C2810      F2815   1.358       .  S
C2811      C2812   1.404       .  A
C2812      F2813   1.358       .  S
C2817      C2818   1.395       .  A
C2817      C2822   1.375       .  A
C2817      F2824   1.360       .  S
C2818      C2819   1.400       .  A
C2819      C2820   1.397       .  A
C2819      F2826   1.346       .  S
C2820      C2821   1.399       .  A
C2820      F2825   1.356       .  S
C2821      C2822   1.405       .  A
C2822      F2823   1.357       .  S
C2827      C2828   1.413       .  A
C2827      C2832   1.404       .  A
C2827      F2834   1.358       .  S
C2828      C2829   1.408       .  A
C2829      C2830   1.412       .  A
C2829      F2836   1.357       .  S
C2830      C2831   1.412       .  A
C2830      F2835   1.356       .  S
C2831      C2832   1.403       .  A
C2832      F2833   1.358       .  S
C2837      C2838   1.405       .  A
C2837      C2842   1.406       .  A
C2837      F2844   1.355       .  S
C2838      C2839   1.408       .  A
C2839      C2840   1.406       .  A
C2839      F2846   1.357       .  S
C2840      C2841   1.415       .  A
C2840      F2845   1.357       .  S
C2841      C2842   1.416       .  A
C2842      F2843   1.357       .  S
C2847      C2848   1.411       .  A
C2847      C2852   1.409       .  A
C2847      F2854   1.358       .  S
C2848      C2849   1.410       .  A
C2849      C2850   1.411       .  A
C2849      F2856   1.357       .  S
C2850      C2851   1.412       .  A
C2850      F2855   1.357       .  S
C2851      C2852   1.409       .  A
C2852      F2853   1.356       .  S
C2857      C2858   1.406       .  A
C2857      C2862   1.404       .  A
C2857      F2864   1.357       .  S
C2858      C2859   1.406       .  A
C2859      C2860   1.410       .  A
C2859      F2866   1.357       .  S
C2860      C2861   1.415       .  A
C2860      F2865   1.357       .  S
C2861      C2862   1.416       .  A
C2862      F2863   1.358       .  S
C2867      C2868   1.401       .  A
C2867      C2872   1.378       .  A
C2867      F2874   1.357       .  S
C2868      C2869   1.402       .  A
C2869      C2870   1.395       .  A
C2869      F2876   1.354       .  S
C2870      C2871   1.403       .  A
C2870      F2875   1.358       .  S
C2871      C2872   1.398       .  A
C2872      F2873   1.355       .  S
C2877      C2878   1.406       .  A
C2877      C2882   1.387       .  A
C2877      F2884   1.358       .  S
C2878      C2879   1.401       .  A
C2879      C2880   1.397       .  A
C2879      F2886   1.354       .  S
C2880      C2881   1.407       .  A
C2880      F2885   1.358       .  S
C2881      C2882   1.401       .  A
C2882      F2883   1.358       .  S
C2887      C2888   1.402       .  A
C2887      C2892   1.391       .  A
C2887      F2894   1.359       .  S
C2888      C2889   1.402       .  A
C2889      C2890   1.386       .  A
C2889      F2896   1.359       .  S
C2890      C2891   1.402       .  A
C2890      F2895   1.359       .  S
C2891      C2892   1.404       .  A
C2892      F2893   1.357       .  S
C2897      C2898   1.414       .  A
C2897      C2902   1.408       .  A
C2897      F2904   1.358       .  S
C2898      C2899   1.415       .  A
C2899      C2900   1.410       .  A
C2899      F2906   1.357       .  S
C2900      C2901   1.408       .  A
C2900      F2905   1.357       .  S
C2901      C2902   1.407       .  A
C2902      F2903   1.356       .  S
C2907      C2908   1.406       .  A
C2907      C2912   1.408       .  A
C2907      F2914   1.357       .  S
C2908      C2909   1.405       .  A
C2909      C2910   1.410       .  A
C2909      F2916   1.357       .  S
C2910      C2911   1.416       .  A
C2910      F2915   1.357       .  S
C2911      C2912   1.417       .  A
C2912      F2913   1.357       .  S
C2917      C2918   1.416       .  A
C2917      C2922   1.402       .  A
C2917      F2924   1.358       .  S
C2918      C2919   1.418       .  A
C2919      C2920   1.413       .  A
C2919      F2926   1.357       .  S
C2920      C2921   1.409       .  A
C2920      F2925   1.357       .  S
C2921      C2922   1.406       .  A
C2922      F2923   1.357       .  S
C2927      C2928   1.416       .  A
C2927      C2932   1.412       .  A
C2927      F2934   1.357       .  S
C2928      C2929   1.417       .  A
C2929      C2930   1.411       .  A
C2929      F2936   1.358       .  S
C2930      C2931   1.408       .  A
C2930      F2935   1.356       .  S
C2931      C2932   1.409       .  A
C2932      F2933   1.357       .  S
C2937      C2938   1.403       .  A
C2937      C2942   1.394       .  A
C2937      F2944   1.358       .  S
C2938      C2939   1.414       .  A
C2939      C2940   1.383       .  A
C2939      F2946   1.360       .  S
C2940      C2941   1.396       .  A
C2940      F2945   1.356       .  S
C2941      C2942   1.405       .  A
C2942      F2943   1.351       .  S
C2947      C2948   1.396       .  A
C2947      C2952   1.389       .  A
C2947      F2954   1.352       .  S
C2948      C2949   1.394       .  A
C2949      C2950   1.389       .  A
C2949      F2956   1.336       .  S
C2950      C2951   1.396       .  A
C2950      F2955   1.357       .  S
C2951      C2952   1.408       .  A
C2952      F2953   1.359       .  S
C2957      C2958   1.396       .  A
C2957      C2962   1.381       .  A
C2957      F2964   1.359       .  S
C2958      C2959   1.399       .  A
C2959      C2960   1.392       .  A
C2959      F2966   1.350       .  S
C2960      C2961   1.401       .  A
C2960      F2965   1.356       .  S
C2961      C2962   1.405       .  A
C2962      F2963   1.359       .  S
C2967      C2968   1.398       .  A
C2967      C2972   1.377       .  A
C2967      F2974   1.360       .  S
C2968      C2969   1.398       .  A
C2969      C2970   1.391       .  A
C2969      F2976   1.353       .  S
C2970      C2971   1.399       .  A
C2970      F2975   1.353       .  S
C2971      C2972   1.401       .  A
C2972      F2973   1.360       .  S
