geometry optimzed in LAMMPS
_audit_creation_date              2020-12-01 
_audit_creation_method            'lammps2cif' 
_symmetry_space_group_name_H-M    'P1' 
_symmetry_Int_Tables_number       1 
_symmetry_cell_setting            triclinic 
loop_ 
_symmetry_equiv_pos_as_xyz 
  x,y,z 
_cell_length_a                    40.47929776 
_cell_length_b                    39.118591601741905 
_cell_length_c                    39.16374557379591 
_cell_angle_alpha                 90.14509206144346 
_cell_angle_beta                  94.73335388761708 
_cell_angle_gamma                 92.44704377442707 
loop_ 
_atom_site_label 
_atom_site_type_symbol 
_atom_site_fract_x 
_atom_site_fract_y 
_atom_site_fract_z 
_atom_site_charge 
C1          C  0.35306336  0.34771710  0.39408478     0.85300
C2          C  0.33278861  0.36949905  0.36786112    -0.55000
C3          C  0.35050241  0.39100078  0.34769562     0.08200
C4          C  0.38935731  0.38820486  0.35595871     0.19100
C5          C  0.37662227  0.32854585  0.37152695    -0.55700
C6          C  0.39621738  0.34889365  0.35120540     0.08300
C7          C  0.37629271  0.37403642  0.41434320    -0.55200
C8          C  0.39556616  0.39553713  0.39567743     0.08900
H9          H  0.30586132  0.36849572  0.36597129     0.13400
H10         H  0.40424151  0.40550292  0.34017416    -0.00900
H11         H  0.37746720  0.30086240  0.37158288     0.13700
H12         H  0.37688788  0.37575870  0.44206931     0.13500
C13         C  0.10111772  0.11589934  0.10979892     0.85300
C14         C  0.12262796  0.14150160  0.09056412    -0.55000
C15         C  0.14376618  0.16308807  0.11048822     0.08200
C16         C  0.13996407  0.15712877  0.15032737     0.19100
C17         C  0.12589020  0.09754783  0.13426725    -0.55700
C18         C  0.14672730  0.11795363  0.15589227     0.08300
C19         C  0.08215680  0.13795972  0.13348629    -0.55200
C20         C  0.10119770  0.15963815  0.15555959     0.08900
H21         H  0.12203301  0.14164044  0.06278034     0.13400
H22         H  0.15636185  0.17431209  0.16751139    -0.00900
H23         H  0.12665177  0.06981395  0.13434531     0.13700
H24         H  0.05532881  0.13556424  0.13354622     0.13500
N25         N  0.05811544  0.48341393  0.45432971    -0.07300
N26         N  0.08374817  0.47592689  0.43732469    -0.59500
N27         N  0.52335027  0.05741987  0.44191192    -0.07000
N28         N  0.52397188  0.08513207  0.42260806    -0.61600
N29         N  0.05037063  0.05791251  0.46388198    -0.06600
N30         N  0.06904773  0.08558874  0.45951607    -0.59400
N31         N  0.03065901  0.47900143  0.43382888    -0.06300
N32         N  0.03718269  0.46755801  0.40382125    -0.61900
C33         C  0.07020238  0.46605869  0.40580710     0.94800
C34         C  0.05343552  0.10051818  0.43239787     0.94600
N35         N  0.42703843  0.03484538  0.46807175    -0.07500
N36         N  0.40213388  0.05546160  0.96481021    -0.60000
N37         N  0.45367311  0.46382000  0.42946198    -0.05600
N38         N  0.44328521  0.44290409  0.40323115    -0.61300
N39         N  0.43512277  0.45828507  0.45506642    -0.07600
N40         N  0.41233874  0.43363852  0.44705672    -0.60300
N41         N  0.44633250  0.04202274  0.44355175    -0.05300
N42         N  0.43556525  0.06801768  0.42520464    -0.61400
Mn43       Mn  0.48804379  0.01118726  0.43685181     1.18400
C44         C  0.40782140  0.07547445  0.43996296     0.96900
C45         C  0.41737205  0.42374552  0.41468093     0.97600
N46         N  0.06452615  0.05550023  0.04547330    -0.07600
N47         N  0.08601473  0.08128277  0.05423478    -0.63900
N48         N  0.05458364  0.46920011  0.06140499    -0.06400
N49         N  0.06666353  0.44582758  0.08246388    -0.64600
N50         N  0.07110642  0.47654745  0.53644339    -0.07100
N51         N  0.09715568  0.45758915  0.54078503    -0.64100
N52         N  0.04569008  0.04869727  0.07055875    -0.06000
N53         N  0.05433713  0.06952242  0.09700744    -0.64800
Mn54       Mn  0.06347679  0.01795613  0.49908826     1.10700
C55         C  0.07920972  0.09044870  0.08638204     0.98100
C56         C  0.09560858  0.43910865  0.06976150     0.98200
N57         N  0.44834740  0.45441094  0.03875192    -0.07100
N58         N  0.43030590  0.42597475  0.04217719    -0.62500
N59         N  0.46771217  0.03092220  0.06834135    -0.06400
N60         N  0.46179665  0.04356473  0.09810133    -0.59200
N61         N  0.44018712  0.02725950  0.04797876    -0.07700
N62         N  0.41495553  0.03686312  0.06453902    -0.62000
N63         N  0.47393542  0.45648069  0.06187155    -0.06700
N64         N  0.98043068  0.42317305  0.07895828    -0.59200
Mn65       Mn  0.43710471  0.49527915  0.00301942     1.20200
Mn66       Mn  0.01180620  0.49895639  0.06659563     1.10100
Cl67       Cl  0.49923439  0.00589145  0.50105938    -0.87200
C68         C  0.44668874  0.41014492  0.06847343     0.95100
C69         C  0.42890859  0.04684553  0.09585324     0.94900
N70         N  0.29688040  0.19718636  0.50415910    -0.07300
N71         N  0.30439719  0.16959686  0.48779637    -0.59500
N72         N  0.31105970  0.24808269  0.06579832    -0.07000
N73         N  0.33874843  0.24473572  0.08556335    -0.61600
N74         N  0.28928075  0.22339483  0.07298650    -0.06600
N75         N  0.30190999  0.20409154  0.09769577    -0.59400
N76         N  0.31673412  0.22331114  0.49670081    -0.06300
N77         N  0.33809214  0.21387252  0.47538289    -0.61900
C78         C  0.32964421  0.18053865  0.46975106     0.94800
C79         C  0.33279514  0.21706066  0.10508570     0.94600
N80         N  0.27532506  0.33843819  0.01747375    -0.07500
N81         N  0.27120626  0.36913344  0.02968431    -0.60000
N82         N  0.31527330  0.29819231  0.46267836    -0.05600
N83         N  0.34181650  0.30637522  0.44555650    -0.61300
N84         N  0.28893829  0.31227286  0.44784501    -0.07600
N85         N  0.29728613  0.33023699  0.42063987    -0.60300
N86         N  0.30064518  0.32413572  0.03387665    -0.05300
N87         N  0.31440430  0.34512754  0.05828379    -0.61400
Mn88       Mn  0.31239520  0.27273047  0.01462317     1.18400
C89         C  0.29560169  0.37326285  0.05501833     0.96900
C90         C  0.33051834  0.32617734  0.41860527     0.97600
N91         N  0.21066941  0.20010327  0.06447296    -0.07600
N92         N  0.20124753  0.18177998  0.09110270    -0.63900
N93         N  0.19813938  0.18921874  0.47891435    -0.06400
N94         N  0.18460197  0.16951194  0.45345115    -0.64600
N95         N  0.22299173  0.17410052  0.49520399    -0.07100
N96         N  0.22696530  0.14384652  0.48178514    -0.64100
N97         N  0.18490368  0.21463860  0.04903087    -0.06000
N98         N  0.15787755  0.20664516  0.06507757    -0.64800
Mn99       Mn  0.25595252  0.19764089  0.03424523     1.10700
C100        C  0.16808313  0.18681609  0.09225487     0.98100
C101        C  0.20277378  0.14101034  0.45604694     0.98200
N102        N  0.21077663  0.28860958  0.43963253    -0.07900
N103        N  0.19860208  0.30806861  0.41490103    -0.62500
N104        N  0.18208530  0.28863962  0.01561189    -0.06400
N105        N  0.16099666  0.29740228  0.03757959    -0.59200
N106        N  0.20163058  0.31503008  0.00836553    -0.07700
N107        N  0.19408670  0.34218683  0.02546274    -0.62000
N108        N  0.18848749  0.26454131  0.44703950    -0.06700
N109        N  0.16069276  0.26863941  0.42769439    -0.59200
Mn110      Mn  0.24362539  0.31455162  0.47835868     1.20200
Mn111      Mn  0.18718410  0.24032584  0.49808475     1.10100
Cl112      Cl  0.25038689  0.25511633  0.00545006    -0.87200
C113        C  0.16731353  0.29607513  0.40823093     0.95100
C114        C  0.16886242  0.33081265  0.04349535     0.94900
N115        N  0.47139495  0.19260534  0.29392842    -0.07300
N116        N  0.46161033  0.16797520  0.31437492    -0.59500
N117        N  0.44324128  0.21056896  0.21700454    -0.07000
N118        N  0.41973226  0.20271453  0.19287646    -0.61600
N119        N  0.46716051  0.18879579  0.21623243    -0.06600
N120        N  0.46050531  0.16584658  0.19157291    -0.59400
N121        N  0.45138832  0.21814297  0.29531647    -0.06300
N122        N  0.42961613  0.21231456  0.31761333    -0.61900
C123        C  0.43478329  0.18041537  0.32843344     0.94800
C124        C  0.43069855  0.17489751  0.17760456     0.94600
N125        N  0.95855699  0.31694869  0.21348343    -0.07500
N126        N  0.95801343  0.33216769  0.18375091    -0.60000
N127        N  0.43796084  0.29584764  0.29231623    -0.05600
N128        N  0.41385205  0.30056134  0.31282522    -0.61300
N129        N  0.45823871  0.32298805  0.29248924    -0.07600
N130        N  0.44739321  0.34707772  0.31298158    -0.60300
N131        N  0.43691112  0.29012244  0.21224878    -0.05300
N132        N  0.41760834  0.28979029  0.18324232    -0.61400
Mn133      Mn  0.44179932  0.25324215  0.25419882     1.18400
C134        C  0.42874476  0.31813916  0.16719995     0.96900
C135        C  0.41948654  0.33265640  0.32614293     0.97600
N136        N  0.04687590  0.19160258  0.21753625    -0.07600
N137        N  0.05477116  0.16741051  0.19594132    -0.63900
N138        N  0.06949913  0.22376644  0.29733160    -0.06400
N139        N  0.09027002  0.22289306  0.32519012    -0.64600
N140        N  0.54905886  0.19554301  0.29385834    -0.07100
N141        N  0.55433270  0.17576323  0.32046591    -0.64100
N142        N  0.06921015  0.21703592  0.21804788    -0.06000
N143        N  0.09274370  0.21038144  0.19713052    -0.64800
Mn144      Mn  0.50842624  0.19074595  0.25444750     1.10700
C145        C  0.08361683  0.17909736  0.18303710     0.98100
C146        C  0.07935224  0.19438184  0.34098121     0.98200
N147        N  0.03886393  0.32502224  0.29274900    -0.07100
N148        N  0.04600882  0.34887298  0.31639935    -0.62500
N149        N  0.05714442  0.29587930  0.21505982    -0.06400
N150        N  0.07842879  0.30081067  0.19207834    -0.59200
N151        N  0.03593968  0.32055592  0.21477146    -0.07700
N152        N  0.04377306  0.34333844  0.19147534    -0.62000
N153        N  0.06291245  0.30324852  0.29231112    -0.06700
N154        N  0.08684623  0.31202778  0.31560155    -0.59200
Mn155      Mn  0.99784596  0.32322320  0.25393938     1.20200
Mn156      Mn  0.06550919  0.26044388  0.25571729     1.10100
Cl157      Cl  0.00330334  0.25762759  0.25524886    -0.87200
C158        C  0.07612347  0.34037823  0.33000286     0.95100
C159        C  0.07061265  0.33063416  0.17752506     0.94900
N160        N  0.28924721  0.43832948  0.29674762    -0.07300
N161        N  0.29876562  0.40945386  0.31173323    -0.59500
N162        N  0.27168711  0.01439402  0.33807832    -0.07000
N163        N  0.26835158  0.03895704  0.36039995    -0.61600
N164        N  0.24558219  0.99314923  0.33596509    -0.06600
N165        N  0.22379353  0.00333555  0.35702287    -0.59400
N166        N  0.31444549  0.46096531  0.29869082    -0.06300
N167        N  0.34121797  0.44750260  0.31484211    -0.61900
C168        C  0.33153092  0.41483824  0.32251152     0.94800
C169        C  0.23870788  0.03172955  0.37249851     0.94600
N170        N  0.27918997  0.09076901  0.26637143    -0.07500
N171        N  0.28764268  0.12367673  0.27017125    -0.60000
N172        N  0.33051938  0.52576933  0.24849871    -0.05600
N173        N  0.36099846  0.51793327  0.24232230    -0.61300
N174        N  0.31669088  0.54305909  0.22260196    -0.07600
N175        N  0.33707615  0.54761275  0.19881877    -0.60300
N176        N  0.29109124  0.07410656  0.29371822    -0.05300
N177        N  0.30589058  0.09548157  0.31645861    -0.61400
Mn178      Mn  0.30317076  0.01982354  0.29605413     1.18400
C179        C  0.30483383  0.12619767  0.30145397     0.96900
C180        C  0.36429814  0.53222186  0.21125080     0.97600
N181        N  0.18708716  0.97824585  0.28246536    -0.07600
N182        N  0.16588060  0.97570507  0.30574722    -0.63900
N183        N  0.21451495  0.44676473  0.21120624    -0.06400
N184        N  0.19880288  0.42748978  0.18724515    -0.64600
N185        N  0.22212190  0.42890828  0.23908612    -0.07100
N186        N  0.20789355  0.39780628  0.23492622    -0.64100
N187        N  0.17475142  0.99498173  0.25557591    -0.06000
N188        N  0.14443841  0.00447154  0.26027696    -0.64800
Mn189      Mn  0.23658463  0.45666666  0.28823426     1.10700
C190        C  0.13969089  0.99189439  0.29171463     0.98100
C191        C  0.19366064  0.39734878  0.20213920     0.98200
N192        N  0.25828746  0.52770183  0.16921074    -0.07100
N193        N  0.28007710  0.51760633  0.14808392    -0.62500
N194        N  0.19161735  0.05666241  0.20664027    -0.06400
N195        N  0.16363166  0.06762007  0.19159443    -0.59200
N196        N  0.21533558  0.08062515  0.20656549    -0.07700
N197        N  0.20338263  0.10842154  0.19068445    -0.62000
N198        N  0.23242608  0.50622118  0.16740856    -0.06700
N199        N  0.23574268  0.48169555  0.14502902    -0.59200
Mn200      Mn  0.26833141  0.06302649  0.21705294     1.20200
Mn201      Mn  0.20234706  0.50048819  0.21058438     1.10100
Cl202      Cl  0.25324521  0.01116357  0.25357127    -0.87200
C203        C  0.26515491  0.48920482  0.13258374     0.95100
C204        C  0.17049398  0.10021592  0.18197457     0.94900
C205        C  0.34565599  0.15919579  0.34010001    -0.21500
C206        C  0.33589320  0.14681199  0.30693035    -0.08100
C207        C  0.36034723  0.14265623  0.28367051     0.12800
C208        C  0.39370201  0.14617317  0.29534920    -0.21600
C209        C  0.40361273  0.16021937  0.32767484    -0.08100
C210        C  0.37907207  0.16861985  0.34955118     0.12800
C211        C  0.38800303  0.18985077  0.38125709    -0.24900
H212        H  0.32710420  0.16222765  0.35811522     0.14100
H213        H  0.41209855  0.14235047  0.27724621     0.14100
C214        C  0.35179516  0.13526901  0.24617053    -0.24900
H215        H  0.36617353  0.19329847  0.39603814     0.04300
H216        H  0.39739913  0.21570849  0.37419436     0.07500
H217        H  0.40783999  0.17758874  0.39737697     0.07500
H218        H  0.33452943  0.15450561  0.23532703     0.07500
H219        H  0.34051309  0.10917303  0.24247766     0.07500
H220        H  0.37405174  0.13716505  0.23152738     0.04300
C221        C  0.15924132  0.35108955  0.17175033    -0.21500
C222        C  0.16125472  0.38044166  0.19225865    -0.08100
C223        C  0.13195330  0.39807563  0.19688696     0.12800
C224        C  0.10138972  0.38482884  0.18260887    -0.21600
C225        C  0.09875516  0.35239257  0.16755278    -0.08100
C226        C  0.12822017  0.33670513  0.15934262     0.12800
C227        C  0.12744332  0.30314585  0.14031835    -0.24900
H228        H  0.18175569  0.33897932  0.16603959     0.14100
H229        H  0.07909248  0.39755077  0.18791715     0.14100
C230        C  0.13230668  0.43021947  0.21825069    -0.24900
H231        H  0.14302871  0.30558943  0.11838526     0.04300
H232        H  0.10187903  0.29501647  0.13023707     0.07500
H233        H  0.13757956  0.28303049  0.15766934     0.07500
H234        H  0.14559847  0.45142764  0.20573133     0.07500
H235        H  0.14437109  0.42549240  0.24418942     0.07500
H236        H  0.10689593  0.43870743  0.22147888     0.04300
C237        C  0.28851202  0.43182227  0.13088199    -0.21500
C238        C  0.28214505  0.46289359  0.11407194    -0.08100
C239        C  0.28603414  0.46536027  0.07876453     0.12800
C240        C  0.29422035  0.43616267  0.06071478    -0.21600
C241        C  0.29814200  0.40436668  0.07701761    -0.08100
C242        C  0.29633433  0.40248648  0.11279254     0.12800
C243        C  0.29984010  0.36904833  0.13141983    -0.24900
H244        H  0.28512023  0.42990809  0.15804981     0.14100
H245        H  0.29531535  0.43758180  0.03312944     0.14100
C246        C  0.27951543  0.49814988  0.05985093    -0.24900
H247        H  0.29734655  0.37202853  0.15929480     0.04300
H248        H  0.32461132  0.35902734  0.12817387     0.07500
H249        H  0.28033439  0.35014628  0.12096633     0.07500
H250        H  0.29616993  0.51911435  0.07137186     0.07500
H251        H  0.25335195  0.50491038  0.06160260     0.07500
H252        H  0.28391971  0.49590133  0.03231988     0.04300
C253        C  0.19833444  0.07911379  0.44199040    -0.21500
C254        C  0.20211654  0.11306231  0.43057892    -0.08100
C255        C  0.21351045  0.11930792  0.39805961     0.12800
C256        C  0.22320686  0.09174116  0.37869995    -0.21600
C257        C  0.22168066  0.05799779  0.39108697    -0.08100
C258        C  0.20761670  0.05140978  0.42225411     0.12800
C259        C  0.20425636  0.01554787  0.43569282    -0.24900
H260        H  0.18998833  0.07451276  0.46696122     0.14100
H261        H  0.23353914  0.09672356  0.35460796     0.14100
C262        C  0.21787168  0.15525428  0.38482216    -0.24900
H263        H  0.19323067  0.01493168  0.46071696     0.04300
H264        H  0.22904845  0.00432380  0.43915763     0.07500
H265        H  0.18790300  0.99962464  0.41720365     0.07500
H266        H  0.23552698  0.17051810  0.40262758     0.07500
H267        H  0.19363814  0.16765635  0.38273971     0.07500
H268        H  0.22763562  0.15560425  0.35915537     0.04300
C269        C  0.08795330  0.34309993  0.38968253    -0.21500
C270        C  0.09530866  0.35731989  0.35841341    -0.08100
C271        C  0.12868397  0.36312274  0.35220817     0.12800
C272        C  0.15195649  0.34233434  0.36884579    -0.21600
C273        C  0.14228401  0.31907338  0.39379849    -0.08100
C274        C  0.11096955  0.32229909  0.40716132     0.12800
C275        C  0.10142628  0.30423661  0.43910211    -0.24900
H276        H  0.06246420  0.34217558  0.39640794     0.14100
H277        H  0.17707534  0.34301984  0.36112997     0.14100
C278        C  0.13815098  0.38608137  0.32348098    -0.24900
H279        H  0.07687733  0.31196142  0.44647785     0.04300
H280        H  0.12004554  0.31084104  0.46081637     0.07500
H281        H  0.09971712  0.27615792  0.43485018     0.07500
H282        H  0.13149357  0.41258554  0.32902735     0.07500
H283        H  0.12484995  0.37751416  0.29880554     0.07500
H284        H  0.16522984  0.38627837  0.32060531     0.04300
C285        C  0.39024644  0.19828841  0.10430800    -0.21500
C286        C  0.35931979  0.19480693  0.11825172    -0.08100
C287        C  0.35382122  0.16759412  0.14132950     0.12800
C288        C  0.38087754  0.14860429  0.15349689    -0.21600
C289        C  0.41291476  0.16007218  0.14712469    -0.08100
C290        C  0.41698948  0.17980411  0.11786705     0.12800
C291        C  0.45074170  0.18534614  0.10483267    -0.24900
H292        H  0.39394932  0.21624827  0.08382811     0.14100
H293        H  0.37790381  0.12999146  0.17349197     0.14100
C294        C  0.32060544  0.15978288  0.15505091    -0.24900
H295        H  0.44986908  0.20213852  0.08197864     0.04300
H296        H  0.46014273  0.16032691  0.09752372     0.07500
H297        H  0.46834890  0.19747547  0.12498532     0.07500
H298        H  0.30215772  0.15101170  0.13402407     0.07500
H299        H  0.31203091  0.18294345  0.16755645     0.07500
H300        H  0.32185850  0.13896663  0.17426551     0.04300
C301        C  0.35713279  0.10392234  0.42426041    -0.21500
C302        C  0.39092167  0.10674759  0.43479456    -0.08100
C303        C  0.40508224  0.13646854  0.45119197     0.12800
C304        C  0.38433340  0.16187422  0.45990307    -0.21600
C305        C  0.34998358  0.15746483  0.45271164    -0.08100
C306        C  0.33616343  0.12917379  0.43326193     0.12800
C307        C  0.29955816  0.12495565  0.42283480    -0.24900
H308        H  0.34681731  0.08060972  0.41190771     0.14100
H309        H  0.39468824  0.18387969  0.47436823     0.14100
C310        C  0.44139807  0.14288521  0.94716851    -0.24900
H311        H  0.29123433  0.14789612  0.40853896     0.04300
H312        H  0.28533503  0.12140843  0.44566680     0.07500
H313        H  0.29378615  0.10228051  0.40593569     0.07500
H314        H  0.45282869  0.13909095  0.92269293     0.07500
H315        H  0.44948092  0.12036193  0.47992765     0.07500
H316        H  0.44824058  0.16929686  0.95643910     0.04300
C317        C  0.16704873  0.38375377  0.07632985    -0.21500
C318        C  0.15027343  0.35366723  0.06354334    -0.08100
C319        C  0.11543519  0.34965709  0.06437861     0.12800
C320        C  0.09519164  0.37841895  0.57510231    -0.21600
C321        C  0.11455183  0.40956970  0.07947269    -0.08100
C322        C  0.14935960  0.41229750  0.08359657     0.12800
C323        C  0.16763181  0.44568156  0.09353368    -0.24900
H324        H  0.19389652  0.38610549  0.07712248     0.14100
H325        H  0.06829192  0.37603314  0.57293739     0.14100
C326        C  0.09466686  0.31800078  0.55450315    -0.24900
H327        H  0.19493080  0.44298433  0.09576580     0.04300
H328        H  0.16023512  0.45438275  0.11870442     0.07500
H329        H  0.16178045  0.46550833  0.07401813     0.07500
H330        H  0.10445279  0.29607434  0.56945768     0.07500
H331        H  0.09699924  0.31355812  0.52682076     0.07500
H332        H  0.06779883  0.31888178  0.55821427     0.04300
C333        C  0.10727914  0.00425655  0.37236699    -0.21500
C334        C  0.08658361  0.47346123  0.37458721    -0.08100
C335        C  0.07542094  0.45755947  0.34295980     0.12800
C336        C  0.08980324  0.46803454  0.31325393    -0.21600
C337        C  0.11210698  0.99703140  0.31183224    -0.08100
C338        C  0.11957982  0.01605248  0.34220584     0.12800
C339        C  0.14285512  0.04722287  0.34305173    -0.24900
H340        H  0.11401425  0.01828531  0.39599431     0.14100
H341        H  0.08454157  0.45340885  0.28974472     0.14100
C342        C  0.04883979  0.42933419  0.34035394    -0.24900
H343        H  0.14577131  0.05951472  0.36877632     0.04300
H344        H  0.16776020  0.04031398  0.33622046     0.07500
H345        H  0.13291212  0.06604380  0.32421266     0.07500
H346        H  0.02455549  0.43969617  0.34509993     0.07500
H347        H  0.05487955  0.40929358  0.35950093     0.07500
H348        H  0.04609315  0.41749943  0.31443062     0.04300
C349        C  0.42591302  0.06262520  0.15598113    -0.21500
C350        C  0.41238852  0.04314541  0.12759827    -0.08100
C351        C  0.38731629  0.51922916  0.12713069     0.12800
C352        C  0.37913675  0.50875489  0.15947263    -0.21600
C353        C  0.39024233  0.52774788  0.18879600    -0.08100
C354        C  0.41610033  0.05599054  0.18880503     0.12800
C355        C  0.42945977  0.07834396  0.21857958    -0.24900
H356        H  0.44415279  0.08312802  0.15237844     0.14100
H357        H  0.36023486  0.48842935  0.16145717     0.14100
C358        C  0.37103052  0.50004315  0.09631044    -0.24900
H359        H  0.44763398  0.09826543  0.21076528     0.04300
H360        H  0.44206964  0.06236857  0.23864482     0.07500
H361        H  0.40896268  0.09127414  0.22964464     0.07500
H362        H  0.38989612  0.48740670  0.08229045     0.07500
H363        H  0.35723382  0.51795726  0.07910352     0.07500
H364        H  0.35302081  0.47977929  0.10367851     0.04300
C365        C  0.44703838  0.34883637  0.08383015    -0.21500
C366        C  0.43257157  0.38055176  0.08596746    -0.08100
C367        C  0.40719362  0.38475742  0.10805226     0.12800
C368        C  0.40011891  0.35868785  0.13102516    -0.21600
C369        C  0.41850297  0.32922435  0.13267157    -0.08100
C370        C  0.43979373  0.32272754  0.10688064     0.12800
C371        C  0.98571582  0.29338554  0.11733725    -0.24900
H372        H  0.46569343  0.34538352  0.06590879     0.14100
H373        H  0.38396049  0.36356499  0.15109541     0.14100
C374        C  0.38993996  0.41791142  0.10977809    -0.24900
H375        H  0.00639992  0.29654661  0.10050001     0.04300
H376        H  0.43863096  0.26785873  0.10360519     0.07500
H377        H  0.99637487  0.29643503  0.14426283     0.07500
H378        H  0.37691748  0.42321555  0.08441105     0.07500
H379        H  0.40846734  0.43897141  0.11702732     0.07500
H380        H  0.37127029  0.41714285  0.12904021     0.04300
C381        C  0.56959365  0.18985042  0.39722830    -0.21500
C382        C  0.09220821  0.18113811  0.37374271    -0.08100
C383        C  0.10536141  0.14850497  0.37232433     0.12800
C384        C  0.09293148  0.12245206  0.39262295    -0.21600
C385        C  0.06880083  0.12928699  0.41504916    -0.08100
C386        C  0.55654777  0.16542789  0.41912212     0.12800
C387        C  0.52974262  0.17488521  0.44128976    -0.24900
H388        H  0.55876862  0.21470508  0.39510899     0.14100
H389        H  0.10055423  0.09648030  0.38946994     0.14100
C390        C  0.12810719  0.13968292  0.34541949    -0.24900
H391        H  0.52413040  0.20237093  0.43889831     0.04300
H392        H  0.53749718  0.16960111  0.46853257     0.07500
H393        H  0.50684208  0.15950354  0.43331348     0.07500
H394        H  0.14989295  0.12666677  0.35742958     0.07500
H395        H  0.13724428  0.16293682  0.33227096     0.07500
H396        H  0.11457832  0.12243245  0.32601434     0.04300
C397        C  0.35404544  0.34865415  0.89483051     0.85300
C398        C  0.33407110  0.37116241  0.86897644    -0.55000
C399        C  0.35215619  0.39302574  0.84943307     0.08200
C400        C  0.39081419  0.38997334  0.85803366     0.19100
C401        C  0.37762532  0.33000095  0.87205002    -0.55700
C402        C  0.39734526  0.35076815  0.85233646     0.08300
C403        C  0.37715314  0.37443080  0.91594099    -0.55200
C404        C  0.39654614  0.39642561  0.89795134     0.08900
H405        H  0.30714480  0.37017041  0.86669985     0.13400
H406        H  0.40592942  0.40756520  0.84276813    -0.00900
H407        H  0.37816197  0.30229722  0.87125409     0.13700
H408        H  0.37743061  0.37557436  0.94367718     0.13500
C409        C  0.10097451  0.11474173  0.60983045     0.85300
C410        C  0.12226007  0.14093780  0.59097006    -0.55000
C411        C  0.14301183  0.16269198  0.61117884     0.08200
C412        C  0.13927177  0.15610607  0.65092252     0.19100
C413        C  0.12594191  0.09651000  0.63420642    -0.55700
C414        C  0.14654391  0.11687926  0.65610884     0.08300
C415        C  0.08168213  0.13637367  0.63384221    -0.55200
C416        C  0.10044507  0.15827410  0.65607851     0.08900
H417        H  0.12172135  0.14143869  0.56320357     0.13400
H418        H  0.15546329  0.17332399  0.66826986    -0.00900
H419        H  0.12704240  0.06880273  0.63396987     0.13700
H420        H  0.05485325  0.13378803  0.63372681     0.13500
N421        N  0.06043586  0.48267531  0.95462835    -0.07300
N422        N  0.08587060  0.47642403  0.93682038    -0.59500
N423        N  0.52325871  0.05641941  0.94108139    -0.07000
N424        N  0.52359142  0.08446800  0.92231338    -0.61600
N425        N  0.04918467  0.06042357  0.96579966    -0.06600
N426        N  0.06759963  0.08840270  0.96201979    -0.59400
N427        N  0.03272836  0.47791804  0.93455162    -0.06300
N428        N  0.03890977  0.46735806  0.90412183    -0.61900
C429        C  0.07193382  0.46685343  0.90535039     0.94800
C430        C  0.05168151  0.10387900  0.93541125     0.94600
N431        N  0.42701410  0.03493989  0.96682148    -0.07500
N432        N  0.40231122  0.05543559  0.46700848    -0.60000
N433        N  0.45303085  0.46542271  0.93267667    -0.05600
N434        N  0.44332982  0.44438645  0.90638857    -0.61300
N435        N  0.43438940  0.45945402  0.95813425    -0.07600
N436        N  0.41214864  0.43431870  0.94990665    -0.60300
N437        N  0.44644181  0.04148790  0.94224230    -0.05300
N438        N  0.43567539  0.06686069  0.92298501    -0.61400
Mn439      Mn  0.48793918  0.01033281  0.93572453     1.18400
C440        C  0.40783511  0.07480936  0.93723466     0.96900
C441        C  0.41771726  0.42466175  0.91755980     0.97600
N442        N  0.06545983  0.05399951  0.54454516    -0.07600
N443        N  0.08674969  0.07992553  0.55373161    -0.63900
N444        N  0.05118260  0.47034608  0.56062689    -0.06400
N445        N  0.06264131  0.44677298  0.58179933    -0.64600
N446        N  0.07418986  0.47570073  0.03699823    -0.07100
N447        N  0.10057814  0.45717917  0.04107918    -0.64100
N448        N  0.04638629  0.04703571  0.56943744    -0.06000
N449        N  0.05462504  0.06784640  0.59602245    -0.64800
Mn450      Mn  0.06234806  0.01995665  0.00028771     1.10700
C451        C  0.07950724  0.08904298  0.58585085     0.98100
C452        C  0.09156230  0.43959912  0.56936880     0.98200
N453        N  0.44993961  0.45301055  0.53521113    -0.07100
N454        N  0.43258809  0.42405203  0.53799163    -0.62500
N455        N  0.46790341  0.03227653  0.56874807    -0.06400
N456        N  0.46189585  0.04550415  0.59819597    -0.59200
N457        N  0.44049789  0.02833192  0.54833008    -0.07700
N458        N  0.41524715  0.03848524  0.56446060    -0.62000
N459        N  0.47577441  0.45497853  0.55801005    -0.06700
N460        N  0.97744306  0.42488453  0.57688936    -0.59200
Mn461      Mn  0.43829955  0.49398223  0.49989358     1.20200
Mn462      Mn  0.00901372  0.50077446  0.56548851     1.10100
Cl463      Cl  0.49895048  0.00502105  0.99996557    -0.87200
C464        C  0.44969563  0.40790101  0.56358608     0.95100
C465        C  0.42898645  0.04864194  0.59578832     0.94900
N466        N  0.29823033  0.19519094  0.00234206    -0.07300
N467        N  0.30512163  0.16798286  0.98498778    -0.59500
N468        N  0.31022018  0.25016988  0.56712902    -0.07000
N469        N  0.33816823  0.24610891  0.58626654    -0.61600
N470        N  0.28817519  0.22579571  0.57453510    -0.06600
N471        N  0.30088182  0.20614599  0.59888702    -0.59400
N472        N  0.31792569  0.22146377  0.99488026    -0.06300
N473        N  0.33849985  0.21242007  0.97250351    -0.61900
C474        C  0.32979816  0.17917680  0.96628804     0.94800
C475        C  0.33209541  0.21837398  0.60564807     0.94600
N476        N  0.27497477  0.34048030  0.51870465    -0.07500
N477        N  0.27129026  0.37133442  0.53069285    -0.60000
N478        N  0.31608414  0.29692090  0.96161844    -0.05600
N479        N  0.34275602  0.30604054  0.94509596    -0.61300
N480        N  0.28966840  0.31077393  0.94665083    -0.07600
N481        N  0.29809817  0.32955763  0.92002511    -0.60300
N482        N  0.30038558  0.32611026  0.53483114    -0.05300
N483        N  0.31469716  0.34719567  0.55881995    -0.61400
Mn484      Mn  0.31153731  0.27455978  0.51589869     1.18400
C485        C  0.29607969  0.37543686  0.55560662     0.96900
C486        C  0.33146347  0.32623473  0.91846785     0.97600
N487        N  0.20950702  0.20225009  0.56623856    -0.07600
N488        N  0.20021003  0.18311229  0.59236668    -0.63900
N489        N  0.19966396  0.18644543  0.97712677    -0.06400
N490        N  0.18622472  0.16641534  0.95184000    -0.64600
N491        N  0.22455084  0.17152516  0.99357343    -0.07100
N492        N  0.22864454  0.14114908  0.98047172    -0.64100
N493        N  0.18358712  0.21665041  0.55092124    -0.06000
N494        N  0.15654077  0.20762572  0.56658361    -0.64800
Mn495      Mn  0.25463689  0.19998400  0.53590470     1.10700
C496        C  0.16692745  0.18736323  0.59340006     0.98100
C497        C  0.20457110  0.13800634  0.95465314     0.98200
N498        N  0.21126916  0.28644615  0.93780976    -0.07900
N499        N  0.19817308  0.30597614  0.91357411    -0.62500
N500        N  0.18123414  0.29113791  0.51742712    -0.06400
N501        N  0.15969658  0.29995689  0.53883806    -0.59200
N502        N  0.20078731  0.31753694  0.51015875    -0.07700
N503        N  0.19271449  0.34482618  0.52679260    -0.62000
N504        N  0.18964963  0.26165737  0.94509186    -0.06700
N505        N  0.16160301  0.26515486  0.92602843    -0.59200
Mn506      Mn  0.24425590  0.31242008  0.97676635     1.20200
Mn507      Mn  0.18842277  0.23774377  0.99617595     1.10100
Cl508      Cl  0.24932193  0.25738303  0.50717945    -0.87200
C509        C  0.16706962  0.29317721  0.90704205     0.95100
C510        C  0.16719356  0.33342331  0.54450031     0.94900
N511        N  0.46824828  0.19563931  0.79459260    -0.07300
N512        N  0.45858237  0.17179031  0.81593210    -0.59500
N513        N  0.44138997  0.21253090  0.71687814    -0.07000
N514        N  0.41791506  0.20417643  0.69287193    -0.61600
N515        N  0.46509455  0.19041566  0.71697463    -0.06600
N516        N  0.45835131  0.16674377  0.69304799    -0.59400
N517        N  0.44790018  0.22096703  0.79471202    -0.06300
N518        N  0.42564318  0.21563092  0.81661168    -0.61900
C519        C  0.43123640  0.18434243  0.82892102     0.94800
C520        C  0.42870464  0.17570118  0.67860604     0.94600
N521        N  0.95869476  0.31916435  0.71229273    -0.07500
N522        N  0.95753955  0.33504787  0.68285558    -0.60000
N523        N  0.43690081  0.29863584  0.79131185    -0.05600
N524        N  0.41321893  0.30331973  0.81228191    -0.61300
N525        N  0.45781060  0.32530221  0.79205281    -0.07600
N526        N  0.44782855  0.34910222  0.81338745    -0.60300
N527        N  0.43680778  0.29243764  0.71127762    -0.05300
N528        N  0.41935397  0.29107319  0.68116238    -0.61400
Mn529      Mn  0.44009791  0.25584061  0.75339051     1.18400
C530        C  0.43166642  0.31871816  0.66492359     0.96900
C531        C  0.41978055  0.33492396  0.82641808     0.97600
N532        N  0.04587695  0.19201102  0.71727336    -0.07600
N533        N  0.05361126  0.16739640  0.69600895    -0.63900
N534        N  0.06855939  0.22447779  0.79698815    -0.06400
N535        N  0.08946767  0.22304479  0.82470270    -0.64600
N536        N  0.54540412  0.19819467  0.79599614    -0.07100
N537        N  0.54890258  0.17985415  0.82383413    -0.64100
N538        N  0.06848552  0.21719075  0.71764037    -0.06000
N539        N  0.09205961  0.20986249  0.69696222    -0.64800
Mn540      Mn  0.50585919  0.19271955  0.75573534     1.10700
C541        C  0.08267576  0.17847436  0.68312233     0.98100
C542        C  0.07845319  0.19433248  0.84012855     0.98200
N543        N  0.03902107  0.32634326  0.79204762    -0.07100
N544        N  0.04581064  0.34964733  0.81632691    -0.62500
N545        N  0.05729877  0.29670674  0.71444296    -0.06400
N546        N  0.07928425  0.30179373  0.69220376    -0.59200
N547        N  0.03654049  0.32182344  0.71421031    -0.07700
N548        N  0.04546594  0.34503063  0.69176241    -0.62000
N549        N  0.06301680  0.30448885  0.79161750    -0.06700
N550        N  0.08664328  0.31283950  0.81543685    -0.59200
Mn551      Mn  0.99806339  0.32488422  0.75303878     1.20200
Mn552      Mn  0.06512641  0.26116701  0.75518252     1.10100
Cl553      Cl  0.00285157  0.25916104  0.75445753    -0.87200
C554        C  0.07579068  0.34096802  0.83019361     0.95100
C555        C  0.07241283  0.33210071  0.67821084     0.94900
N556        N  0.29197776  0.44018498  0.79726368    -0.07300
N557        N  0.30122304  0.41144895  0.81262020    -0.59500
N558        N  0.27202685  0.01123649  0.83645765    -0.07000
N559        N  0.26837308  0.03584311  0.85863665    -0.61600
N560        N  0.24612582  0.98972267  0.83432681    -0.06600
N561        N  0.22418614  0.99970998  0.85528965    -0.59400
N562        N  0.31718069  0.46284681  0.79933410    -0.06300
N563        N  0.34369436  0.44947871  0.81611747    -0.61900
C564        C  0.33377320  0.41689454  0.82393328     0.94800
C565        C  0.23879900  0.02826579  0.87067262     0.94600
N566        N  0.27929269  0.08803116  0.76551706    -0.07500
N567        N  0.28689530  0.12104852  0.76985720    -0.60000
N568        N  0.33300527  0.52802899  0.74846169    -0.05600
N569        N  0.36338748  0.52026703  0.74169824    -0.61300
N570        N  0.31887759  0.54545522  0.72281936    -0.07600
N571        N  0.33898234  0.55026082  0.69877406    -0.60300
N572        N  0.29130427  0.07121792  0.79269240    -0.05300
N573        N  0.30538214  0.09255749  0.81589071    -0.61400
Mn574      Mn  0.30347772  0.01695096  0.79459312     1.18400
C575        C  0.30367105  0.12348239  0.80135284     0.96900
C576        C  0.36639010  0.53485641  0.71064496     0.97600
N577        N  0.18758040  0.97541756  0.78131829    -0.07600
N578        N  0.16699114  0.97325350  0.80521718    -0.63900
N579        N  0.21786700  0.44747859  0.71172394    -0.06400
N580        N  0.20222157  0.42810117  0.68778347    -0.64600
N581        N  0.22517855  0.42979241  0.73976921    -0.07100
N582        N  0.21076155  0.39875576  0.73572956    -0.64100
N583        N  0.17505295  0.99267958  0.75486467    -0.06000
N584        N  0.14517537  0.00285206  0.76052840    -0.64800
Mn585      Mn  0.23933678  0.45793377  0.78883128     1.10700
C586        C  0.14094331  0.99017939  0.79208210     0.98100
C587        C  0.19669816  0.39812280  0.70286378     0.98200
N588        N  0.26055381  0.52936314  0.67004497    -0.07100
N589        N  0.28256366  0.51969036  0.64900652    -0.62500
N590        N  0.19179987  0.05495769  0.70600911    -0.06400
N591        N  0.16371787  0.06620892  0.69141972    -0.59200
N592        N  0.21561418  0.07880110  0.70580139    -0.07700
N593        N  0.20361027  0.10680379  0.69029388    -0.62000
N594        N  0.23504631  0.50743666  0.66824614    -0.06700
N595        N  0.23873762  0.48303984  0.64589209    -0.59200
Mn596      Mn  0.26860602  0.06077140  0.71604406     1.20200
Mn597      Mn  0.20503002  0.50102536  0.71118808     1.10100
Cl598      Cl  0.25350605  0.00860176  0.75219703    -0.87200
C599        C  0.26805151  0.49111258  0.63355930     0.95100
C600        C  0.17056988  0.09888654  0.68195560     0.94900
C601        C  0.34188680  0.16101115  0.83875762    -0.21500
C602        C  0.33432333  0.14457096  0.80700956    -0.08100
C603        C  0.36017925  0.13838409  0.78592476     0.12800
C604        C  0.39286766  0.14481458  0.79862713    -0.21600
C605        C  0.40059177  0.16334113  0.82903050    -0.08100
C606        C  0.37451937  0.17316413  0.84843954     0.12800
C607        C  0.38069823  0.19905605  0.87696907    -0.24900
H608        H  0.32219079  0.16549352  0.85509901     0.14100
H609        H  0.41233077  0.13925748  0.78226099     0.14100
C610        C  0.35379045  0.12500664  0.74979117    -0.24900
H611        H  0.35853331  0.20150759  0.89154998     0.04300
H612        H  0.38672229  0.22457730  0.86625545     0.07500
H613        H  0.40209330  0.19177774  0.89448034     0.07500
H614        H  0.33648472  0.14166435  0.73483991     0.07500
H615        H  0.34337755  0.09854473  0.75021593     0.07500
H616        H  0.37674938  0.12491985  0.73623804     0.04300
C617        C  0.16171198  0.35180801  0.67305263    -0.21500
C618        C  0.16407076  0.38151984  0.69303076    -0.08100
C619        C  0.13491021  0.39947051  0.69750511     0.12800
C620        C  0.10410954  0.38594046  0.68416963    -0.21600
C621        C  0.10121901  0.35347751  0.66919510    -0.08100
C622        C  0.13054449  0.33750514  0.66098489     0.12800
C623        C  0.12954479  0.30395543  0.64193111    -0.24900
H624        H  0.18409663  0.33941674  0.66738057     0.14100
H625        H  0.08194320  0.39877771  0.68967708     0.14100
C626        C  0.13566661  0.43233572  0.71770613    -0.24900
H627        H  0.14485468  0.30646080  0.61977504     0.04300
H628        H  0.10391770  0.29580494  0.63211017     0.07500
H629        H  0.13986140  0.28382944  0.65915221     0.07500
H630        H  0.14890472  0.45297292  0.70427451     0.07500
H631        H  0.14797297  0.42832660  0.74365943     0.07500
H632        H  0.11038728  0.44118683  0.72092050     0.04300
C633        C  0.29250141  0.43454179  0.63163698    -0.21500
C634        C  0.28519183  0.46535201  0.61479317    -0.08100
C635        C  0.28709486  0.46749041  0.57916950     0.12800
C636        C  0.29455476  0.43822539  0.56090405    -0.21600
C637        C  0.29922811  0.40661239  0.57732695    -0.08100
C638        C  0.29900135  0.40496096  0.61328773     0.12800
C639        C  0.30245321  0.37151340  0.63193180    -0.24900
H640        H  0.29036308  0.43289990  0.65906418     0.14100
H641        H  0.29432836  0.43939705  0.53317718     0.14100
C642        C  0.27912181  0.49997479  0.56028736    -0.24900
H643        H  0.30151725  0.37477082  0.66001475     0.04300
H644        H  0.32648569  0.36054610  0.62736229     0.07500
H645        H  0.28198366  0.35318749  0.62256930     0.07500
H646        H  0.29619569  0.52120028  0.57054313     0.07500
H647        H  0.25317357  0.50654548  0.56369129     0.07500
H648        H  0.28177835  0.49741452  0.53240450     0.04300
C649        C  0.20313348  0.07564530  0.94281502    -0.21500
C650        C  0.20354544  0.10925734  0.92990130    -0.08100
C651        C  0.21088932  0.11487771  0.89575010     0.12800
C652        C  0.21986460  0.08718851  0.87602207    -0.21600
C653        C  0.22167995  0.05401388  0.88971541    -0.08100
C654        C  0.21181770  0.04788161  0.92283108     0.12800
C655        C  0.21251229  0.01252399  0.93785776    -0.24900
H656        H  0.19793228  0.07148622  0.96895180     0.14100
H657        H  0.22730383  0.09174456  0.85055416     0.14100
C658        C  0.21232414  0.15045312  0.88106058    -0.24900
H659        H  0.20457867  0.01215657  0.96430055     0.04300
H660        H  0.23807733  0.00311723  0.93864974     0.07500
H661        H  0.19544217  0.99489099  0.92178899     0.07500
H662        H  0.23154643  0.16659919  0.89610768     0.07500
H663        H  0.18798417  0.16226731  0.88208266     0.07500
H664        H  0.21849754  0.15027269  0.85397054     0.04300
C665        C  0.08508916  0.33644412  0.88972246    -0.21500
C666        C  0.09304756  0.35534438  0.86112104    -0.08100
C667        C  0.12650553  0.36390344  0.85741107     0.12800
C668        C  0.15029161  0.34270506  0.87248956    -0.21600
C669        C  0.14093117  0.31577593  0.89386645    -0.08100
C670        C  0.10846682  0.31479007  0.90536369     0.12800
C671        C  0.09787338  0.29124222  0.93324988    -0.24900
H672        H  0.05922931  0.33288560  0.89480211     0.14100
H673        H  0.17585499  0.34638721  0.86645354     0.14100
C674        C  0.13620189  0.39172098  0.83327193    -0.24900
H675        H  0.07197917  0.29534591  0.93924775     0.04300
H676        H  0.11421191  0.29606903  0.95712107     0.07500
H677        H  0.09896347  0.26419624  0.92506835     0.07500
H678        H  0.12893144  0.41661740  0.84313349     0.07500
H679        H  0.12368221  0.38708545  0.80727727     0.07500
H680        H  0.16342272  0.39338457  0.83117900     0.04300
C681        C  0.38971170  0.19977245  0.60536505    -0.21500
C682        C  0.35838134  0.19557628  0.61834422    -0.08100
C683        C  0.35244347  0.16746209  0.64029563     0.12800
C684        C  0.37951526  0.14900206  0.65337929    -0.21600
C685        C  0.41162936  0.16083927  0.64782348    -0.08100
C686        C  0.41619914  0.18092116  0.61890459     0.12800
C687        C  0.45025377  0.18670731  0.60663159    -0.24900
H688        H  0.39389475  0.21847700  0.58565389     0.14100
H689        H  0.37621037  0.13040545  0.67344659     0.14100
C690        C  0.31861591  0.15789998  0.65176141    -0.24900
H691        H  0.44982210  0.20392436  0.58411375     0.04300
H692        H  0.45975304  0.16181876  0.59905486     0.07500
H693        H  0.46756124  0.19842977  0.62728895     0.07500
H694        H  0.30163191  0.14916982  0.62945937     0.07500
H695        H  0.30845071  0.18018122  0.66430680     0.07500
H696        H  0.31953637  0.13654089  0.67040167     0.04300
C697        C  0.35567835  0.10099870  0.92207443    -0.21500
C698        C  0.38992407  0.10527314  0.92963765    -0.08100
C699        C  0.40432768  0.13690250  0.94132399     0.12800
C700        C  0.38357943  0.16222254  0.95047873    -0.21600
C701        C  0.34910548  0.15632588  0.94735313    -0.08100
C702        C  0.33478130  0.12645809  0.93082466     0.12800
C703        C  0.29780734  0.12049298  0.92373245    -0.24900
H704        H  0.34518908  0.07648409  0.91270436     0.14100
H705        H  0.39435856  0.18550119  0.96229525     0.14100
C706        C  0.44174938  0.14041500  0.46127938    -0.24900
H707        H  0.28737839  0.14241575  0.90922718     0.04300
H708        H  0.28573848  0.11726148  0.94797610     0.07500
H709        H  0.29161931  0.09696416  0.90817101     0.07500
H710        H  0.45517295  0.13774670  0.43794976     0.07500
H711        H  0.45181734  0.12478601  0.96659344     0.07500
H712        H  0.44879273  0.16580439  0.47308474     0.04300
C713        C  0.16407975  0.38661902  0.57669435    -0.21500
C714        C  0.14805568  0.35603366  0.56427098    -0.08100
C715        C  0.11336880  0.35078637  0.56600515     0.12800
C716        C  0.09803049  0.37773295  0.07375426    -0.21600
C717        C  0.11088676  0.41071296  0.58026583    -0.08100
C718        C  0.14561706  0.41440891  0.58446525     0.12800
C719        C  0.16291946  0.44807986  0.59519400    -0.24900
H720        H  0.19085195  0.38984587  0.57717949     0.14100
H721        H  0.07111669  0.37612981  0.07135953     0.14100
C722        C  0.09590685  0.31780628  0.05152603    -0.24900
H723        H  0.19031590  0.44622699  0.59754004     0.04300
H724        H  0.15514558  0.45585689  0.62052257     0.07500
H725        H  0.15657355  0.46820480  0.57615497     0.07500
H726        H  0.10435003  0.29521482  0.06631355     0.07500
H727        H  0.09907106  0.31380723  0.02392538     0.07500
H728        H  0.06893834  0.31967625  0.05422256     0.04300
C729        C  0.10833722  0.00525431  0.87313916    -0.21500
C730        C  0.08760003  0.47486953  0.87383335    -0.08100
C731        C  0.07602630  0.45939712  0.84207352     0.12800
C732        C  0.09090313  0.46945265  0.81251116    -0.21600
C733        C  0.11389100  0.99545692  0.81298940    -0.08100
C734        C  0.12137968  0.01546843  0.84275599     0.12800
C735        C  0.14494112  0.04632029  0.84268881    -0.24900
H736        H  0.11467090  0.02025594  0.89625629     0.14100
H737        H  0.08544578  0.45495301  0.78895141     0.14100
C738        C  0.04914402  0.43145020  0.83930294    -0.24900
H739        H  0.14785788  0.05940642  0.86803168     0.04300
H740        H  0.16973131  0.03873910  0.83616613     0.07500
H741        H  0.13532212  0.06469257  0.82320226     0.07500
H742        H  0.02504035  0.44196821  0.84451009     0.07500
H743        H  0.05526128  0.41100526  0.85799379     0.07500
H744        H  0.04601125  0.41996982  0.81321887     0.04300
C745        C  0.42646043  0.06087841  0.65673153    -0.21500
C746        C  0.41258438  0.04311816  0.62735013    -0.08100
C747        C  0.38833581  0.51919475  0.62562833     0.12800
C748        C  0.37940172  0.51035624  0.65820379    -0.21600
C749        C  0.39146710  0.52950203  0.68716479    -0.08100
C750        C  0.41734546  0.05188477  0.68927618     0.12800
C751        C  0.43287129  0.07066375  0.72056977    -0.24900
H752        H  0.44497995  0.08139378  0.65421967     0.14100
H753        H  0.35972040  0.49095381  0.66064643     0.14100
C754        C  0.37226819  0.49900670  0.59535042    -0.24900
H755        H  0.45121819  0.09095131  0.71384742     0.04300
H756        H  0.44584163  0.05226972  0.73796831     0.07500
H757        H  0.41363907  0.08270369  0.73444356     0.07500
H758        H  0.39128859  0.48618066  0.58173986     0.07500
H759        H  0.35830990  0.51628935  0.57756256     0.07500
H760        H  0.35460053  0.47868964  0.60328792     0.04300
C761        C  0.45546339  0.34841180  0.58257624    -0.21500
C762        C  0.43664381  0.37759114  0.58055688    -0.08100
C763        C  0.40878068  0.37972527  0.59976212     0.12800
C764        C  0.40253652  0.35413934  0.62352759    -0.21600
C765        C  0.42443414  0.32773778  0.62923390    -0.08100
C766        C  0.44954770  0.32321104  0.60689060     0.12800
C767        C  0.98419000  0.29619863  0.61648993    -0.24900
H768        H  0.47654299  0.34685234  0.56735638     0.14100
H769        H  0.38402285  0.35782497  0.64148352     0.14100
C770        C  0.38847751  0.41109652  0.59870281    -0.24900
H771        H  0.00471048  0.29895251  0.59940498     0.04300
H772        H  0.45762754  0.26927780  0.60932246     0.07500
H773        H  0.99508354  0.29944844  0.64329603     0.07500
H774        H  0.37653840  0.41465640  0.57248212     0.07500
H775        H  0.40488515  0.43372673  0.60633724     0.07500
H776        H  0.36877988  0.40933197  0.61674890     0.04300
C777        C  0.56865732  0.19113731  0.90224041    -0.21500
C778        C  0.09056808  0.18118601  0.87317009    -0.08100
C779        C  0.10299130  0.14811866  0.87275989     0.12800
C780        C  0.09113409  0.12350020  0.89491846    -0.21600
C781        C  0.06758243  0.13180086  0.91743819    -0.08100
C782        C  0.55759263  0.16576091  0.92434654     0.12800
C783        C  0.53546024  0.17464150  0.95180402    -0.24900
H784        H  0.55873194  0.21642866  0.90303262     0.14100
H785        H  0.09834212  0.09720020  0.89278042     0.14100
C786        C  0.12402975  0.13698999  0.84516918    -0.24900
H787        H  0.53088376  0.20243178  0.95217560     0.04300
H788        H  0.54731252  0.16757498  0.97724673     0.07500
H789        H  0.51125197  0.16035208  0.94730252     0.07500
H790        H  0.14585328  0.12381595  0.85682820     0.07500
H791        H  0.13309752  0.15909374  0.83028075     0.07500
H792        H  0.10921883  0.11900991  0.82739332     0.04300
C793        C  0.35296692  0.84843626  0.39404457     0.85300
C794        C  0.33237818  0.87091451  0.36871832    -0.55000
C795        C  0.34990570  0.89315495  0.34909796     0.08200
C796        C  0.38875022  0.89035562  0.35694951     0.19100
C797        C  0.37633154  0.83015860  0.37069988    -0.55700
C798        C  0.39562530  0.85122658  0.35081430     0.08300
C799        C  0.37612398  0.87422601  0.41499635    -0.55200
C800        C  0.39505337  0.89651598  0.39688566     0.08900
H801        H  0.30544390  0.86977799  0.36700376     0.13400
H802        H  0.40345222  0.90825260  0.34159422    -0.00900
H803        H  0.37716825  0.80248419  0.36980978     0.13700
H804        H  0.37681715  0.87510810  0.44277378     0.13500
C805        C  0.10067611  0.61443703  0.10917935     0.85300
C806        C  0.12231162  0.63974041  0.08963838    -0.55000
C807        C  0.14350128  0.66154471  0.10929344     0.08200
C808        C  0.13977623  0.65593590  0.14922994     0.19100
C809        C  0.12531150  0.59624151  0.13383689    -0.55700
C810        C  0.14620519  0.61670129  0.15527761     0.08300
C811        C  0.08186830  0.63697189  0.13267710    -0.55200
C812        C  0.10110800  0.65885479  0.15448352     0.08900
H813        H  0.12163573  0.63962475  0.06185510     0.13400
H814        H  0.15628974  0.67318059  0.16623806    -0.00900
H815        H  0.12586757  0.56849619  0.13425016     0.13700
H816        H  0.05505075  0.63471078  0.13286010     0.13500
N817        N  0.06018134  0.98330443  0.45318749    -0.07300
N818        N  0.08542508  0.97660803  0.43526894    -0.59500
N819        N  0.52659288  0.55540456  0.43969240    -0.07000
N820        N  0.52762427  0.58309085  0.42041933    -0.61600
N821        N  0.04900380  0.55832139  0.46504124    -0.06600
N822        N  0.06769016  0.58617402  0.46151749    -0.59400
N823        N  0.03231681  0.97808635  0.43342905    -0.06300
N824        N  0.03822245  0.96677796  0.40318777    -0.61900
C825        C  0.07123719  0.96639548  0.40406858     0.94800
C826        C  0.05218537  0.60178626  0.43473253     0.94600
N827        N  0.42922000  0.53522956  0.46356391    -0.07500
N828        N  0.40295050  0.55698441  0.96404375    -0.60000
N829        N  0.45195782  0.96502264  0.43190481    -0.05600
N830        N  0.44174684  0.94457973  0.40529438    -0.61300
N831        N  0.43387795  0.95842898  0.45768009    -0.07600
N832        N  0.41149623  0.93346537  0.44931546    -0.60300
N833        N  0.44907351  0.54139936  0.43929044    -0.05300
N834        N  0.43855491  0.56655862  0.41951394    -0.61400
Mn835      Mn  0.49062942  0.50956459  0.43439220     1.18400
C836        C  0.41037303  0.57473542  0.43310867     0.96900
C837        C  0.41641284  0.92454956  0.41658111     0.97600
N838        N  0.06506441  0.55260878  0.04569919    -0.07600
N839        N  0.08614014  0.57880577  0.05418800    -0.63900
N840        N  0.05418222  0.97199061  0.06093229    -0.06400
N841        N  0.06586088  0.94780027  0.08122979    -0.64600
N842        N  0.07495370  0.97701236  0.53563591    -0.07100
N843        N  0.10123218  0.95829018  0.53960939    -0.64100
N844        N  0.04601496  0.54601321  0.07067785    -0.06000
N845        N  0.05415986  0.56744590  0.09678992    -0.64800
Mn846      Mn  0.06105623  0.51784481  0.50002181     1.10700
C847        C  0.07889676  0.58853133  0.08602410     0.98100
C848        C  0.09439076  0.94062873  0.06791031     0.98200
N849        N  0.44941048  0.95174302  0.03650186    -0.07100
N850        N  0.43289621  0.92220343  0.03851601    -0.62500
N851        N  0.46726700  0.53420116  0.06876296    -0.06400
N852        N  0.46056474  0.54814304  0.09766560    -0.59200
N853        N  0.44042983  0.53097225  0.04738139    -0.07700
N854        N  0.41496328  0.54250848  0.06218195    -0.62000
N855        N  0.47555972  0.95371698  0.05890913    -0.06700
N856        N  0.98113436  0.92619403  0.07929949    -0.59200
Mn857      Mn  0.43671838  0.99304552  0.00221130     1.20200
Mn858      Mn  0.01153835  0.00184181  0.06655925     1.10100
Cl859      Cl  0.50072051  0.50519242  0.49878517    -0.87200
C860        C  0.45079487  0.90574272  0.06328893     0.95100
C861        C  0.42781074  0.55256875  0.09383158     0.94900
N862        N  0.29971029  0.69415450  0.50025179    -0.07300
N863        N  0.30750587  0.66709108  0.48313659    -0.59500
N864        N  0.31012330  0.74824633  0.06572055    -0.07000
N865        N  0.33747023  0.74572062  0.08613350    -0.61600
N866        N  0.28879786  0.72293770  0.07232109    -0.06600
N867        N  0.30151844  0.70378954  0.09711812    -0.59400
N868        N  0.31951736  0.72063657  0.49361688    -0.06300
N869        N  0.34110770  0.71186662  0.47212554    -0.61900
C870        C  0.33290887  0.67856955  0.46550435     0.94800
C871        C  0.33196087  0.71766816  0.10524071     0.94600
N872        N  0.27507012  0.83879407  0.01853392    -0.07500
N873        N  0.27090407  0.86934757  0.03118221    -0.60000
N874        N  0.31647034  0.79657762  0.46150094    -0.05600
N875        N  0.34277975  0.80561488  0.44439524    -0.61300
N876        N  0.28988012  0.81057732  0.44712454    -0.07600
N877        N  0.29776822  0.82932947  0.42031905    -0.60300
N878        N  0.30042785  0.82436490  0.03472732    -0.05300
N879        N  0.31412182  0.84508366  0.05944587    -0.61400
Mn880      Mn  0.31214867  0.77298208  0.01484597     1.18400
C881        C  0.29527126  0.87323220  0.05662537     0.96900
C882        C  0.33098706  0.82586934  0.41801862     0.97600
N883        N  0.21016028  0.69948726  0.06325438    -0.07600
N884        N  0.20081823  0.68079590  0.08967625    -0.63900
N885        N  0.20011801  0.68660574  0.47532218    -0.06400
N886        N  0.18607252  0.66714471  0.44987306    -0.64600
N887        N  0.22531890  0.67132669  0.49082616    -0.07100
N888        N  0.22903000  0.64126565  0.47689703    -0.64100
N889        N  0.18430003  0.71399914  0.04788710    -0.06000
N890        N  0.15727071  0.70548931  0.06378925    -0.64800
Mn891      Mn  0.25565792  0.69740920  0.03321242     1.10700
C892        C  0.16759778  0.68545706  0.09081638     0.98100
C893        C  0.20437342  0.63870670  0.45164079     0.98200
N894        N  0.21188779  0.78701907  0.43831584    -0.07900
N895        N  0.19932532  0.80723328  0.41440875    -0.62500
N896        N  0.18127849  0.78876305  0.01460278    -0.06400
N897        N  0.15922707  0.79772760  0.03550149    -0.59200
N898        N  0.20110977  0.81513325  0.00790828    -0.07700
N899        N  0.19287469  0.84240120  0.02435280    -0.62000
N900        N  0.18976148  0.76262703  0.44530270    -0.06700
N901        N  0.16175175  0.76717170  0.42647095    -0.59200
Mn902      Mn  0.24485867  0.81193530  0.47760572     1.20200
Mn903      Mn  0.18892520  0.73731613  0.49587033     1.10100
Cl904      Cl  0.25011688  0.75524723  0.00526500    -0.87200
C905        C  0.16800629  0.79526849  0.40779703     0.95100
C906        C  0.16691838  0.83120435  0.04141424     0.94900
N907        N  0.46804014  0.69621667  0.29359900    -0.07300
N908        N  0.45727118  0.67181905  0.31379681    -0.59500
N909        N  0.44263023  0.71359136  0.21565502    -0.07000
N910        N  0.41993119  0.70592547  0.19067345    -0.61600
N911        N  0.46641071  0.69157742  0.21593745    -0.06600
N912        N  0.46043340  0.66852972  0.19126042    -0.59400
N913        N  0.44795703  0.72178842  0.29383977    -0.06300
N914        N  0.42499295  0.71615971  0.31490714    -0.61900
C915        C  0.42984526  0.68451270  0.32653453     0.94800
C916        C  0.43126611  0.67795575  0.17600292     0.94600
N917        N  0.96007679  0.81674173  0.21276209    -0.07500
N918        N  0.96067477  0.83186156  0.18305864    -0.60000
N919        N  0.43619375  0.79945382  0.28998755    -0.05600
N920        N  0.41226284  0.80393002  0.31075061    -0.61300
N921        N  0.45676740  0.82638653  0.29068714    -0.07600
N922        N  0.44632957  0.85010924  0.31186471    -0.60300
N923        N  0.43748595  0.79242174  0.20994645    -0.05300
N924        N  0.42187830  0.78878722  0.17903340    -0.61400
Mn925      Mn  0.44049076  0.75655377  0.25237941     1.18400
C926        C  0.43531630  0.81493577  0.16161748     0.96900
C927        C  0.41830208  0.83567602  0.32478051     0.97600
N928        N  0.04762073  0.69137712  0.21688684    -0.07600
N929        N  0.05512005  0.66720852  0.19510083    -0.63900
N930        N  0.07003426  0.72302801  0.29698843    -0.06400
N931        N  0.09037408  0.72191638  0.32515963    -0.64600
N932        N  0.54604811  0.69945403  0.29587540    -0.07100
N933        N  0.55071583  0.67989483  0.32273322    -0.64100
N934        N  0.07007768  0.71670558  0.21740351    -0.06000
N935        N  0.09338479  0.70989856  0.19622667    -0.64800
Mn936      Mn  0.50657485  0.69390036  0.25535077     1.10700
C937        C  0.08388869  0.67868755  0.18201060     0.98100
C938        C  0.07918843  0.69322412  0.34049926     0.98200
N939        N  0.03934497  0.82434877  0.29310392    -0.07100
N940        N  0.04616754  0.84808794  0.31693251    -0.62500
N941        N  0.05862083  0.79625149  0.21531740    -0.06400
N942        N  0.08051504  0.80207708  0.19308965    -0.59200
N943        N  0.03739560  0.82090873  0.21534231    -0.07700
N944        N  0.04575324  0.84450543  0.19305902    -0.62000
N945        N  0.06358124  0.80277551  0.29263475    -0.06700
N946        N  0.08733034  0.81161904  0.31614507    -0.59200
Mn947      Mn  0.99872343  0.82276965  0.25388792     1.20200
Mn948      Mn  0.06644695  0.76011028  0.25558025     1.10100
Cl949      Cl  0.00413970  0.75722211  0.25461921    -0.87200
C950        C  0.07628242  0.83977539  0.33067695     0.95100
C951        C  0.07288356  0.83230769  0.17929842     0.94900
N952        N  0.28878365  0.94147005  0.29927432    -0.07300
N953        N  0.29810255  0.91240774  0.31395804    -0.59500
N954        N  0.27262906  0.51073213  0.33672069    -0.07000
N955        N  0.26923611  0.53514636  0.35918523    -0.61600
N956        N  0.24670796  0.48925689  0.33478827    -0.06600
N957        N  0.22501346  0.49912999  0.35605744    -0.59400
N958        N  0.31408017  0.96395259  0.30128557    -0.06300
N959        N  0.34079490  0.95022660  0.31724112    -0.61900
C960        C  0.33088166  0.91755878  0.32467217     0.94800
C961        C  0.23974590  0.52757300  0.37150270     0.94600
N962        N  0.27776569  0.58765912  0.26524350    -0.07500
N963        N  0.28459247  0.62080418  0.26948612    -0.60000
N964        N  0.33163927  0.02850903  0.25127420    -0.05600
N965        N  0.36235774  0.02069567  0.24609874    -0.61300
N966        N  0.31857173  0.04586538  0.22503111    -0.07600
N967        N  0.33982713  0.05059036  0.20204616    -0.60300
N968        N  0.29060565  0.57106782  0.29220252    -0.05300
N969        N  0.30468480  0.59269947  0.31513591    -0.61400
Mn970      Mn  0.30318622  0.51681970  0.29399432     1.18400
C971        C  0.30197159  0.62358060  0.30061320     0.96900
C972        C  0.36680281  0.03525608  0.21537590     0.97600
N973        N  0.18744145  0.47576711  0.28235529    -0.07600
N974        N  0.16717821  0.47361577  0.30654412    -0.63900
N975        N  0.21636571  0.94857982  0.21244799    -0.06400
N976        N  0.20176227  0.92873287  0.18826968    -0.64600
N977        N  0.22348001  0.93116575  0.24069972    -0.07100
N978        N  0.21013850  0.89971205  0.23644194    -0.64100
N979        N  0.17446712  0.49280695  0.25593753    -0.06000
N980        N  0.14459762  0.50274544  0.26188505    -0.64800
Mn981      Mn  0.23636520  0.95968217  0.28973059     1.10700
C982        C  0.14088834  0.49028492  0.29360139     0.98100
C983        C  0.19670177  0.89861781  0.20334057     0.98200
N984        N  0.26063751  0.02923043  0.17077005    -0.07100
N985        N  0.28265325  0.01880910  0.15001308    -0.62500
N986        N  0.19023734  0.55511761  0.20656360    -0.06400
N987        N  0.16236460  0.56639735  0.19152878    -0.59200
N988        N  0.21415008  0.57881674  0.20623366    -0.07700
N989        N  0.20254038  0.60667534  0.19022240    -0.62000
N990        N  0.23463398  0.00791935  0.16864991    -0.06700
N991        N  0.23799205  0.98332874  0.14637144    -0.59200
Mn992      Mn  0.26670884  0.56065509  0.21579871     1.20200
Mn993      Mn  0.20381873  0.00229290  0.21111081     1.10100
Cl994      Cl  0.25254388  0.50847682  0.25219167    -0.87200
C995        C  0.26765207  0.99046786  0.13436298     0.95100
C996        C  0.16958509  0.59889127  0.18168771     0.94900
C997        C  0.34054351  0.66106550  0.33754984    -0.21500
C998        C  0.33216255  0.64547373  0.30553628    -0.08100
C999        C  0.35727250  0.64075686  0.28314347     0.12800
C1000       C  0.39025768  0.64706099  0.29498359    -0.21600
C1001       C  0.39881465  0.66405207  0.32612673    -0.08100
C1002       C  0.37328862  0.67322858  0.34657286     0.12800
C1003       C  0.38010268  0.69847788  0.37557992    -0.24900
H1004       H  0.32133546  0.66487567  0.35467833     0.14100
H1005       H  0.40922468  0.64261582  0.27768257     0.14100
C1006       C  0.34973814  0.62957846  0.24639967    -0.24900
H1007       H  0.35828405  0.70065515  0.39073171     0.04300
H1008       H  0.38596172  0.72420861  0.36525796     0.07500
H1009       H  0.40180495  0.69083291  0.39241988     0.07500
H1010       H  0.33179729  0.64695416  0.23338240     0.07500
H1011       H  0.33959508  0.60292661  0.24521973     0.07500
H1012       H  0.37218334  0.63086428  0.23199520     0.04300
C1013       C  0.16147579  0.85327439  0.17198309    -0.21500
C1014       C  0.16412979  0.88192743  0.19353508    -0.08100
C1015       C  0.13504821  0.89926079  0.19972434     0.12800
C1016       C  0.10410345  0.88612645  0.18650681    -0.21600
C1017       C  0.10104126  0.85440450  0.17004413    -0.08100
C1018       C  0.13011836  0.83918662  0.16016099     0.12800
C1019       C  0.12858818  0.80646927  0.13967576    -0.24900
H1020       H  0.18372541  0.84148571  0.16498869     0.14100
H1021       H  0.08206311  0.89844536  0.19325873     0.14100
C1022       C  0.13609740  0.93126695  0.22123603    -0.24900
H1023       H  0.14341346  0.80983854  0.11726650     0.04300
H1024       H  0.10275007  0.79876962  0.13012416     0.07500
H1025       H  0.13913505  0.78564087  0.15579259     0.07500
H1026       H  0.14869403  0.95245310  0.20798110     0.07500
H1027       H  0.14915322  0.92652045  0.24669334     0.07500
H1028       H  0.11092268  0.93968055  0.22560017     0.04300
C1029       C  0.28933867  0.93234548  0.13270046    -0.21500
C1030       C  0.28442988  0.96377319  0.11604336    -0.08100
C1031       C  0.28870997  0.96605481  0.08078906     0.12800
C1032       C  0.29582338  0.93643952  0.06266096    -0.21600
C1033       C  0.29820185  0.90437480  0.07879976    -0.08100
C1034       C  0.29594434  0.90259442  0.11455324     0.12800
C1035       C  0.29768302  0.86895430  0.13310747    -0.24900
H1036       H  0.28556991  0.93053330  0.15982062     0.14100
H1037       H  0.29730050  0.93784856  0.03514797     0.14100
C1038       C  0.28346681  0.99911327  0.06192788    -0.24900
H1039       H  0.29481152  0.87207510  0.16090469     0.04300
H1040       H  0.32199899  0.85766612  0.13039052     0.07500
H1041       H  0.27757016  0.85095375  0.12225223     0.07500
H1042       H  0.30075009  0.01949399  0.07359867     0.07500
H1043       H  0.25756097  0.00684408  0.06351679     0.07500
H1044       H  0.28794978  0.99668039  0.03443931     0.04300
C1045       C  0.19928002  0.57657557  0.43956705    -0.21500
C1046       C  0.20231670  0.61010096  0.42681088    -0.08100
C1047       C  0.21243663  0.61520168  0.39358001     0.12800
C1048       C  0.22226143  0.58709001  0.37511508    -0.21600
C1049       C  0.22214771  0.55399301  0.38913764    -0.08100
C1050       C  0.20874400  0.54832507  0.42078328     0.12800
C1051       C  0.20635396  0.51298012  0.43567412    -0.24900
H1052       H  0.19167685  0.57281289  0.46502290     0.14100
H1053       H  0.23180289  0.59123687  0.35045172     0.14100
C1054       C  0.21560948  0.65057517  0.37869618    -0.24900
H1055       H  0.19569423  0.51311649  0.46089466     0.04300
H1056       H  0.23141562  0.50238300  0.43923056     0.07500
H1057       H  0.19009734  0.49607069  0.41802229     0.07500
H1058       H  0.23391368  0.66663369  0.39500102     0.07500
H1059       H  0.19125710  0.66271061  0.37744705     0.07500
H1060       H  0.22397818  0.64994693  0.35240982     0.04300
C1061       C  0.08761690  0.84087488  0.39044398    -0.21500
C1062       C  0.09482879  0.85638360  0.35972473    -0.08100
C1063       C  0.12814648  0.86349605  0.35407260     0.12800
C1064       C  0.15189234  0.84281072  0.37012288    -0.21600
C1065       C  0.14262654  0.81836696  0.39418347    -0.08100
C1066       C  0.11110283  0.82024284  0.40742956     0.12800
C1067       C  0.10182883  0.80097865  0.43878586    -0.24900
H1068       H  0.06208250  0.83891350  0.39693285     0.14100
H1069       H  0.17710934  0.84460163  0.36266399     0.14100
C1070       C  0.13725608  0.88830974  0.32672489    -0.24900
H1071       H  0.07708169  0.80786433  0.44632324     0.04300
H1072       H  0.12027800  0.80737395  0.46070781     0.07500
H1073       H  0.10070519  0.77303380  0.43373276     0.07500
H1074       H  0.12984963  0.91423419  0.33361218     0.07500
H1075       H  0.12435093  0.88071661  0.30155994     0.07500
H1076       H  0.16439627  0.88954333  0.32411035     0.04300
C1077       C  0.38983611  0.70072313  0.10376867    -0.21500
C1078       C  0.35909949  0.69599831  0.11790267    -0.08100
C1079       C  0.35444853  0.66803728  0.14030688     0.12800
C1080       C  0.38221047  0.64998437  0.15230835    -0.21600
C1081       C  0.41387419  0.66246192  0.14565263    -0.08100
C1082       C  0.41704078  0.68247950  0.11643533     0.12800
C1083       C  0.45030708  0.68840902  0.10244647    -0.24900
H1084       H  0.39295786  0.71916945  0.08357750     0.14100
H1085       H  0.37992802  0.63126840  0.17238194     0.14100
C1086       C  0.32129981  0.65825898  0.15325147    -0.24900
H1087       H  0.44876932  0.70569323  0.07995660     0.04300
H1088       H  0.45944368  0.66357451  0.09422457     0.07500
H1089       H  0.46844931  0.70008396  0.12237079     0.07500
H1090       H  0.30351084  0.64937408  0.13168086     0.07500
H1091       H  0.31153374  0.68050522  0.16624836     0.07500
H1092       H  0.32315171  0.63688411  0.17180282     0.04300
C1093       C  0.35871688  0.60214210  0.41781832    -0.21500
C1094       C  0.39299623  0.60570626  0.42567334    -0.08100
C1095       C  0.40758601  0.63675220  0.43877676     0.12800
C1096       C  0.38705247  0.66158847  0.44969665    -0.21600
C1097       C  0.35250731  0.65611819  0.44619087    -0.08100
C1098       C  0.33804821  0.62741014  0.42770649     0.12800
C1099       C  0.30110711  0.62262408  0.41938199    -0.24900
H1100       H  0.34797266  0.57821422  0.40718539     0.14100
H1101       H  0.39798734  0.68419245  0.46266969     0.14100
C1102       C  0.44209844  0.64486176  0.94496123    -0.24900
H1103       H  0.29152460  0.64565575  0.40611472     0.04300
H1104       H  0.28831110  0.61819264  0.44302156     0.07500
H1105       H  0.29482189  0.60024199  0.40220736     0.07500
H1106       H  0.45298877  0.64108859  0.92017459     0.07500
H1107       H  0.45557908  0.62362258  0.46211849     0.07500
H1108       H  0.44877621  0.67139726  0.95394775     0.04300
C1109       C  0.16513836  0.88422729  0.07405850    -0.21500
C1110       C  0.14819077  0.85426687  0.06117600    -0.08100
C1111       C  0.11335221  0.85048761  0.06211678     0.12800
C1112       C  0.09760964  0.87868108  0.57181781    -0.21600
C1113       C  0.11291408  0.91059538  0.07693736    -0.08100
C1114       C  0.14770550  0.91288589  0.08146190     0.12800
C1115       C  0.16627357  0.94588633  0.09225873    -0.24900
H1116       H  0.19200654  0.88633243  0.07509953     0.14100
H1117       H  0.07069979  0.87750438  0.56912270     0.14100
C1118       C  0.09494673  0.81847853  0.55018960    -0.24900
H1119       H  0.19353635  0.94285038  0.09488602     0.04300
H1120       H  0.15862099  0.95420930  0.11745465     0.07500
H1121       H  0.16092780  0.96613669  0.07306405     0.07500
H1122       H  0.10304552  0.79595925  0.56529437     0.07500
H1123       H  0.09831199  0.81409047  0.52270885     0.07500
H1124       H  0.06797075  0.82073536  0.55264666     0.04300
C1125       C  0.10831603  0.50239528  0.37492283    -0.21500
C1126       C  0.08624128  0.97481772  0.37226317    -0.08100
C1127       C  0.07454603  0.95914072  0.34064087     0.12800
C1128       C  0.08820615  0.97015373  0.31069856    -0.21600
C1129       C  0.11374277  0.49485210  0.31448643    -0.08100
C1130       C  0.12122044  0.51380242  0.34489186     0.12800
C1131       C  0.14444732  0.54495284  0.34570693    -0.24900
H1132       H  0.11480634  0.51653818  0.39851687     0.14100
H1133       H  0.08277708  0.95561576  0.28713833     0.14100
C1134       C  0.04853002  0.93032859  0.33834498    -0.24900
H1135       H  0.14717879  0.55739150  0.37136759     0.04300
H1136       H  0.16931786  0.53793913  0.33892735     0.07500
H1137       H  0.13459334  0.56366988  0.32670912     0.07500
H1138       H  0.02420580  0.93998757  0.34404807     0.07500
H1139       H  0.05559632  0.91012784  0.35695409     0.07500
H1140       H  0.04530788  0.91880497  0.31227588     0.04300
C1141       C  0.42352080  0.56453247  0.15450184    -0.21500
C1142       C  0.40994804  0.54759595  0.12454301    -0.08100
C1143       C  0.39057720  0.01468132  0.13272571     0.12800
C1144       C  0.38216143  0.00732134  0.16581946    -0.21600
C1145       C  0.39274481  0.02912733  0.19327110    -0.08100
C1146       C  0.41380096  0.55488633  0.18664195     0.12800
C1147       C  0.42767854  0.57422868  0.21828164    -0.24900
H1148       H  0.44215576  0.58506237  0.15272012     0.14100
H1149       H  0.36352850  0.98711958  0.16951317     0.14100
C1150       C  0.37561892  0.99212447  0.10372244    -0.24900
H1151       H  0.44563552  0.59511871  0.21212743     0.04300
H1152       H  0.44064397  0.55639067  0.23628799     0.07500
H1153       H  0.40745259  0.58569487  0.23119693     0.07500
H1154       H  0.39554430  0.98042563  0.09050684     0.07500
H1155       H  0.36032231  0.00752469  0.08524658     0.07500
H1156       H  0.35934406  0.97106475  0.11283902     0.04300
C1157       C  0.46174950  0.84713417  0.08203528    -0.21500
C1158       C  0.43960607  0.87357599  0.07836325    -0.08100
C1159       C  0.40942946  0.87114364  0.09411074     0.12800
C1160       C  0.40412756  0.84437609  0.11687832    -0.21600
C1161       C  0.42921320  0.82174681  0.12526524    -0.08100
C1162       C  0.45658658  0.82075667  0.10525632     0.12800
C1163       C  0.99252327  0.79773227  0.11749342    -0.24900
H1164       H  0.48439120  0.84868300  0.06900423     0.14100
H1165       H  0.38319488  0.84477504  0.13242776     0.14100
C1166       C  0.38516296  0.89920164  0.09096182    -0.24900
H1167       H  0.01390344  0.80330483  0.10202221     0.04300
H1168       H  0.46973801  0.76813782  0.10699834     0.07500
H1169       H  0.00172713  0.79999741  0.14491295     0.07500
H1170       H  0.37520509  0.90186171  0.06388728     0.07500
H1171       H  0.39793646  0.92341637  0.10028309     0.07500
H1172       H  0.36408033  0.89416305  0.10678077     0.04300
C1173       C  0.57127369  0.68988077  0.40059169    -0.21500
C1174       C  0.09126856  0.67975500  0.37340407    -0.08100
C1175       C  0.10347986  0.64662950  0.37247943     0.12800
C1176       C  0.09157300  0.62174794  0.39433158    -0.21600
C1177       C  0.06825925  0.62989287  0.41716363    -0.08100
C1178       C  0.56063409  0.66427029  0.42262223     0.12800
C1179       C  0.53760954  0.67251450  0.44944737    -0.24900
H1180       H  0.56067116  0.71483207  0.40126781     0.14100
H1181       H  0.09854626  0.59545915  0.39173668     0.14100
C1182       C  0.12441182  0.63582024  0.34466531    -0.24900
H1183       H  0.53200404  0.70006559  0.44939597     0.04300
H1184       H  0.54920719  0.66605723  0.47517123     0.07500
H1185       H  0.51394938  0.65732525  0.44456176     0.07500
H1186       H  0.14645286  0.62287419  0.35614651     0.07500
H1187       H  0.13320191  0.65805144  0.32977475     0.07500
H1188       H  0.10959317  0.61784702  0.32687437     0.04300
C1189       C  0.35340640  0.84718209  0.89364051     0.85300
C1190       C  0.33291159  0.86891527  0.86753189    -0.55000
C1191       C  0.35048687  0.89094826  0.84777305     0.08200
C1192       C  0.38931612  0.88872879  0.85627130     0.19100
C1193       C  0.37736165  0.82870512  0.87103795    -0.55700
C1194       C  0.39674282  0.84964577  0.85105799     0.08300
C1195       C  0.37606172  0.87355220  0.91435317    -0.55200
C1196       C  0.39505934  0.89561961  0.89609900     0.08900
H1197       H  0.30597733  0.86749290  0.86542938     0.13400
H1198       H  0.40405687  0.90648885  0.84081015    -0.00900
H1199       H  0.37852044  0.80103839  0.87068635     0.13700
H1200       H  0.37643475  0.87492056  0.94208196     0.13500
C1201       C  0.10129055  0.61382651  0.60960972     0.85300
C1202       C  0.12337619  0.63873845  0.59005232    -0.55000
C1203       C  0.14484757  0.66036001  0.60963671     0.08200
C1204       C  0.14081920  0.65513636  0.64958459     0.19100
C1205       C  0.12572814  0.59545888  0.63449020    -0.55700
C1206       C  0.14689184  0.61592072  0.65578332     0.08300
C1207       C  0.08275456  0.63676445  0.63299533    -0.55200
C1208       C  0.10213226  0.65846254  0.65486781     0.08900
H1209       H  0.12279068  0.63846984  0.56227345     0.13400
H1210       H  0.15750104  0.67227272  0.66654005    -0.00900
H1211       H  0.12607926  0.56770233  0.63503969     0.13700
H1212       H  0.05592854  0.63479075  0.63315020     0.13500
N1213       N  0.05938813  0.98598648  0.95430954    -0.07300
N1214       N  0.08488798  0.97926682  0.93677734    -0.59500
N1215       N  0.52527376  0.55730014  0.94279844    -0.07000
N1216       N  0.52643712  0.58485495  0.92333944    -0.61600
N1217       N  0.05115748  0.55721974  0.96593880    -0.06600
N1218       N  0.07026584  0.58466818  0.96194259    -0.59400
N1219       N  0.03171011  0.98120988  0.93420456    -0.06300
N1220       N  0.03796615  0.97024509  0.90393101    -0.61900
C1221       C  0.07100880  0.96930498  0.90543053     0.94800
C1222       C  0.05507678  0.59993411  0.93479426     0.94600
N1223       N  0.42792168  0.53656774  0.96676113    -0.07500
N1224       N  0.40432954  0.55572905  0.46081329    -0.60000
N1225       N  0.45167523  0.96443221  0.93076632    -0.05600
N1226       N  0.44164575  0.94374988  0.90429415    -0.61300
N1227       N  0.43335053  0.95819036  0.95642447    -0.07600
N1228       N  0.41099449  0.93319415  0.94812946    -0.60300
N1229       N  0.44786048  0.54299342  0.94263347    -0.05300
N1230       N  0.43731557  0.56819881  0.92294371    -0.61400
Mn1231     Mn  0.48947997  0.51137459  0.93760344     1.18400
C1232       C  0.40906564  0.57618247  0.93648816     0.96900
C1233       C  0.41615906  0.92393961  0.91555982     0.97600
N1234       N  0.06339761  0.55368141  0.54516192    -0.07600
N1235       N  0.08550212  0.57890425  0.55412067    -0.63900
N1236       N  0.05541223  0.97055170  0.56009168    -0.06400
N1237       N  0.06736936  0.94710302  0.58108251    -0.64600
N1238       N  0.07360634  0.97857766  0.03638181    -0.07100
N1239       N  0.09949584  0.95926931  0.03959856    -0.64100
N1240       N  0.04423129  0.54735551  0.57011567    -0.06000
N1241       N  0.05338033  0.56799993  0.59667723    -0.64800
Mn1242     Mn  0.06335340  0.51683596  0.00065875     1.10700
C1243       C  0.07888938  0.58832283  0.58626649     0.98100
C1244       C  0.09619681  0.94020635  0.56830776     0.98200
N1245       N  0.45001554  0.95246249  0.53781257    -0.07100
N1246       N  0.43398272  0.92263107  0.53964676    -0.62500
N1247       N  0.46853845  0.53249849  0.56570500    -0.06400
N1248       N  0.46210096  0.54623572  0.59478734    -0.59200
N1249       N  0.44158062  0.52935165  0.54451813    -0.07700
N1250       N  0.41620268  0.54062343  0.55970802    -0.62000
N1251       N  0.47606316  0.95482365  0.56030724    -0.06700
N1252       N  0.98274761  0.92376381  0.57772198    -0.59200
Mn1253     Mn  0.43712358  0.99340361  0.50328268     1.20200
Mn1254     Mn  0.01256993  0.99985178  0.56528097     1.10100
Cl1255     Cl  0.49946252  0.50666689  0.00201437    -0.87200
C1256       C  0.45205530  0.90641614  0.56446992     0.95100
C1257       C  0.42936621  0.55066921  0.59127980     0.94900
N1258       N  0.29814087  0.69538373  0.00131711    -0.07300
N1259       N  0.30517935  0.66848327  0.98351048    -0.59500
N1260       N  0.31200017  0.74610069  0.56492529    -0.07000
N1261       N  0.33939767  0.74318131  0.58524397    -0.61600
N1262       N  0.29049515  0.72090769  0.57143247    -0.06600
N1263       N  0.30302328  0.70157118  0.59615807    -0.59400
N1264       N  0.31794935  0.72180249  0.99451135    -0.06300
N1265       N  0.33873727  0.71313618  0.97216043    -0.61900
C1266       C  0.33010182  0.67998480  0.96523908     0.94800
C1267       C  0.33353625  0.71519393  0.60438214     0.94600
N1268       N  0.27603419  0.83726353  0.51849302    -0.07500
N1269       N  0.27196746  0.86779508  0.53115899    -0.60000
N1270       N  0.31621682  0.79722371  0.96202362    -0.05600
N1271       N  0.34267567  0.80547132  0.94482095    -0.61300
N1272       N  0.28984391  0.81120935  0.94724431    -0.07600
N1273       N  0.29797298  0.82914421  0.91999479    -0.60300
N1274       N  0.30147558  0.82276199  0.53443677    -0.05300
N1275       N  0.31534929  0.84345270  0.55904363    -0.61400
Mn1276     Mn  0.31332550  0.77162860  0.51419093     1.18400
C1277       C  0.29651318  0.87161064  0.55633490     0.96900
C1278       C  0.33116307  0.82519254  0.91788313     0.97600
N1279       N  0.21167933  0.69745869  0.56284581    -0.07600
N1280       N  0.20237781  0.67856202  0.58919714    -0.63900
N1281       N  0.19939797  0.68655587  0.97596186    -0.06400
N1282       N  0.18560284  0.66631346  0.95100406    -0.64600
N1283       N  0.22427635  0.67160752  0.99238863    -0.07100
N1284       N  0.22799285  0.64101616  0.97964236    -0.64100
N1285       N  0.18589097  0.71265055  0.54820379    -0.06000
N1286       N  0.15902947  0.70449143  0.56450166    -0.64800
Mn1287     Mn  0.25705861  0.69594216  0.53217043     1.10700
C1288       C  0.16930442  0.68388727  0.59104602     0.98100
C1289       C  0.20368276  0.63772515  0.95409342     0.98200
N1290       N  0.21252879  0.78685949  0.93763780    -0.07900
N1291       N  0.20068922  0.80599410  0.91247144    -0.62500
N1292       N  0.18253634  0.78790406  0.51629004    -0.06400
N1293       N  0.16063237  0.79695876  0.53730988    -0.59200
N1294       N  0.20222788  0.81424643  0.50923935    -0.07700
N1295       N  0.19411050  0.84160767  0.52558471    -0.62000
N1296       N  0.19062280  0.76208137  0.94412690    -0.06700
N1297       N  0.16350472  0.76517376  0.92348878    -0.59200
Mn1298     Mn  0.24442309  0.81283988  0.97717808     1.20200
Mn1299     Mn  0.18812730  0.73780602  0.99512385     1.10100
Cl1300     Cl  0.25116875  0.75412579  0.50505818    -0.87200
C1301       C  0.16992337  0.79299210  0.90444687     0.95100
C1302       C  0.16834422  0.83048298  0.54294242     0.94900
N1303       N  0.46960164  0.69497807  0.79517710    -0.07300
N1304       N  0.45859086  0.67101921  0.81571509    -0.59500
N1305       N  0.44373209  0.71173425  0.71732568    -0.07000
N1306       N  0.42045086  0.70353543  0.69309836    -0.61600
N1307       N  0.46725679  0.68942473  0.71776301    -0.06600
N1308       N  0.46062160  0.66576103  0.69380983    -0.59400
N1309       N  0.44991113  0.72087640  0.79522456    -0.06300
N1310       N  0.42715362  0.71602431  0.81662147    -0.61900
C1311       C  0.43143556  0.68437704  0.82842118     0.94800
C1312       C  0.43119251  0.67496354  0.67902577     0.94600
N1313       N  0.96148752  0.81792252  0.71350396    -0.07500
N1314       N  0.96208753  0.83266935  0.68358578    -0.60000
N1315       N  0.43811451  0.79790279  0.79102009    -0.05600
N1316       N  0.41396034  0.80237801  0.81147891    -0.61300
N1317       N  0.45880750  0.82472219  0.79199839    -0.07600
N1318       N  0.44814637  0.84847681  0.81300387    -0.60300
N1319       N  0.43930564  0.79135045  0.71101516    -0.05300
N1320       N  0.42354995  0.78869215  0.68007330    -0.61400
Mn1321     Mn  0.44222415  0.75516026  0.75347045     1.18400
C1322       C  0.43645586  0.81586712  0.66358852     0.96900
C1323       C  0.41991519  0.83406068  0.82557548     0.97600
N1324       N  0.04835646  0.69121280  0.71722147    -0.07600
N1325       N  0.05586802  0.66706147  0.69537142    -0.63900
N1326       N  0.07049992  0.72236445  0.79749707    -0.06400
N1327       N  0.09136844  0.72053963  0.82519325    -0.64600
N1328       N  0.54756382  0.69737926  0.79698688    -0.07100
N1329       N  0.55161844  0.67903471  0.82481067    -0.64100
N1330       N  0.07108356  0.71629965  0.71804980    -0.06000
N1331       N  0.09453315  0.70935084  0.69705491    -0.64800
Mn1332     Mn  0.50772082  0.69180749  0.75670848     1.10700
C1333       C  0.08489997  0.67828915  0.68256233     0.98100
C1334       C  0.08013061  0.69180428  0.84038066     0.98200
N1335       N  0.04102788  0.82440700  0.79354668    -0.07100
N1336       N  0.04830352  0.84843589  0.81697070    -0.62500
N1337       N  0.05990528  0.79582414  0.71596466    -0.06400
N1338       N  0.08115821  0.80081825  0.69292625    -0.59200
N1339       N  0.03864912  0.82047716  0.71568703    -0.07700
N1340       N  0.04628333  0.84319193  0.69227411    -0.62000
N1341       N  0.06503439  0.80254445  0.79313770    -0.06700
N1342       N  0.08909804  0.81154654  0.81624236    -0.59200
Mn1343     Mn  0.00027449  0.82330228  0.75451423     1.20200
Mn1344     Mn  0.06751919  0.75969144  0.75623980     1.10100
Cl1345     Cl  0.00517036  0.75762590  0.75535742    -0.87200
C1346       C  0.07847738  0.84009105  0.83045061     0.95100
C1347       C  0.07305763  0.83052518  0.67823284     0.94900
N1348       N  0.28934085  0.93848766  0.79711374    -0.07300
N1349       N  0.29879187  0.90949894  0.81188954    -0.59500
N1350       N  0.27521142  0.51243103  0.83716035    -0.07000
N1351       N  0.27193371  0.53651635  0.86003129    -0.61600
N1352       N  0.24947051  0.49070846  0.83536043    -0.06600
N1353       N  0.22808352  0.49999196  0.85721846    -0.59400
N1354       N  0.31450674  0.96113713  0.79934655    -0.06300
N1355       N  0.34123155  0.94760226  0.81545481    -0.61900
C1356       C  0.33150788  0.91489285  0.82283250     0.94800
C1357       C  0.24276409  0.52838777  0.87283567     0.94600
N1358       N  0.27933488  0.58935538  0.76581991    -0.07500
N1359       N  0.28567844  0.62256894  0.77021931    -0.60000
N1360       N  0.33184483  0.02564694  0.74994457    -0.05600
N1361       N  0.36245109  0.01745244  0.74478929    -0.61300
N1362       N  0.31885046  0.04300631  0.72366931    -0.07600
N1363       N  0.34011792  0.04732661  0.70060583    -0.60300
N1364       N  0.29245420  0.57281929  0.79266806    -0.05300
N1365       N  0.30605889  0.59452168  0.81577555    -0.61400
Mn1366     Mn  0.30573707  0.51873255  0.79435109     1.18400
C1367       C  0.30300074  0.62542807  0.80138603     0.96900
C1368       C  0.36695810  0.03170897  0.71398292     0.97600
N1369       N  0.18992068  0.47626351  0.78285008    -0.07600
N1370       N  0.16934198  0.47377772  0.80675087    -0.63900
N1371       N  0.21610426  0.94657966  0.71069917    -0.06400
N1372       N  0.20122380  0.92713834  0.68635341    -0.64600
N1373       N  0.22341409  0.92873310  0.73862461    -0.07100
N1374       N  0.20983439  0.89739870  0.73404328    -0.64100
N1375       N  0.17698248  0.49303545  0.75625756    -0.06000
N1376       N  0.14691032  0.50260913  0.76179801    -0.64800
Mn1377     Mn  0.23680476  0.95667789  0.78789533     1.10700
C1378       C  0.14292327  0.49006359  0.79339968     0.98100
C1379       C  0.19616937  0.89683283  0.70101822     0.98200
N1380       N  0.26082846  0.02737322  0.66980757    -0.07100
N1381       N  0.28323254  0.01659743  0.64971115    -0.62500
N1382       N  0.19207676  0.55525119  0.70715995    -0.06400
N1383       N  0.16402724  0.56584977  0.69189280    -0.59200
N1384       N  0.21555887  0.57942784  0.70693343    -0.07700
N1385       N  0.20343771  0.60696617  0.69076077    -0.62000
N1386       N  0.23479758  0.00607795  0.66761883    -0.06700
N1387       N  0.23860220  0.98109108  0.64592921    -0.59200
Mn1388     Mn  0.26853406  0.56229915  0.71643650     1.20200
Mn1389     Mn  0.20384992  0.00038069  0.71006100     1.10100
Cl1390     Cl  0.25507264  0.50983766  0.75280890    -0.87200
C1391       C  0.26850448  0.98800398  0.63442157     0.95100
C1392       C  0.17066209  0.59841545  0.68200714     0.94900
C1393       C  0.34134011  0.66355111  0.83781190    -0.21500
C1394       C  0.33326653  0.64718951  0.80613808    -0.08100
C1395       C  0.35872986  0.64119369  0.78449132     0.12800
C1396       C  0.39160892  0.64728298  0.79672804    -0.21600
C1397       C  0.39994425  0.66470874  0.82765657    -0.08100
C1398       C  0.37420806  0.67502624  0.84729270     0.12800
C1399       C  0.38104338  0.70066083  0.87596422    -0.24900
H1400       H  0.32190912  0.66819084  0.85444508     0.14100
H1401       H  0.41079874  0.64189061  0.77998324     0.14100
C1402       C  0.35175176  0.62791287  0.74841931    -0.24900
H1403       H  0.35907632  0.70343316  0.89077759     0.04300
H1404       H  0.38740707  0.72614019  0.86534861     0.07500
H1405       H  0.40242555  0.69292343  0.89322954     0.07500
H1406       H  0.33395072  0.64440303  0.73396505     0.07500
H1407       H  0.34173673  0.60130714  0.74896249     0.07500
H1408       H  0.37441493  0.62816684  0.73442881     0.04300
C1409       C  0.16117379  0.85109006  0.67003124    -0.21500
C1410       C  0.16364291  0.88016478  0.69100583    -0.08100
C1411       C  0.13450973  0.89777767  0.69642948     0.12800
C1412       C  0.10372265  0.88467204  0.68272865    -0.21600
C1413       C  0.10075281  0.85236812  0.66746137    -0.08100
C1414       C  0.12989657  0.83682857  0.65821176     0.12800
C1415       C  0.12846518  0.80354102  0.63867774    -0.24900
H1416       H  0.18350429  0.83903756  0.66361081     0.14100
H1417       H  0.08158068  0.89733885  0.68873871     0.14100
C1418       C  0.13528779  0.92980203  0.71797950    -0.24900
H1419       H  0.14340994  0.80622520  0.61627947     0.04300
H1420       H  0.10264547  0.79563954  0.62924318     0.07500
H1421       H  0.13894388  0.78315800  0.65544310     0.07500
H1422       H  0.14817949  0.95106840  0.70513624     0.07500
H1423       H  0.14790801  0.92497347  0.74363544     0.07500
H1424       H  0.11001063  0.93823739  0.72191075     0.04300
C1425       C  0.28918285  0.92952370  0.63269741    -0.21500
C1426       C  0.28546270  0.96132263  0.61643219    -0.08100
C1427       C  0.29089125  0.96415508  0.58149905     0.12800
C1428       C  0.29799484  0.93470961  0.56315380    -0.21600
C1429       C  0.29922115  0.90236657  0.57882514    -0.08100
C1430       C  0.29564707  0.89994517  0.61428167     0.12800
C1431       C  0.29567973  0.86582131  0.63203738    -0.24900
H1432       H  0.28447168  0.92733054  0.65953780     0.14100
H1433       H  0.30033531  0.93650598  0.53578224     0.14100
C1434       C  0.28668146  0.99764338  0.56313868    -0.24900
H1435       H  0.29174904  0.86840893  0.65964428     0.04300
H1436       H  0.31983301  0.85390437  0.63005234     0.07500
H1437       H  0.27545100  0.84863387  0.61996179     0.07500
H1438       H  0.30382780  0.01762808  0.57573761     0.07500
H1439       H  0.26078524  0.00567571  0.56401966     0.07500
H1440       H  0.29202403  0.99566118  0.53585730     0.04300
C1441       C  0.20130684  0.57545647  0.94183628    -0.21500
C1442       C  0.20304739  0.60916498  0.92924478    -0.08100
C1443       C  0.21339859  0.61496367  0.89620971     0.12800
C1444       C  0.22432325  0.58747921  0.87759831    -0.21600
C1445       C  0.22510447  0.55425000  0.89125038    -0.08100
C1446       C  0.21193235  0.54781164  0.92290154     0.12800
C1447       C  0.21097739  0.51233868  0.93765776    -0.24900
H1448       H  0.19372719  0.57116231  0.96716255     0.14100
H1449       H  0.23384483  0.59224203  0.85306849     0.14100
C1450       C  0.21567812  0.65055896  0.88168102    -0.24900
H1451       H  0.20034205  0.51182045  0.96288878     0.04300
H1452       H  0.23650374  0.50284780  0.94114484     0.07500
H1453       H  0.19538435  0.49487891  0.91996000     0.07500
H1454       H  0.23302760  0.66714500  0.89855030     0.07500
H1455       H  0.19083006  0.66167691  0.87982000     0.07500
H1456       H  0.22479890  0.65059605  0.85571906     0.04300
C1457       C  0.09020756  0.84033728  0.88971557    -0.21500
C1458       C  0.09715676  0.85669700  0.85939052    -0.08100
C1459       C  0.13043253  0.86338050  0.85340770     0.12800
C1460       C  0.15384749  0.84135010  0.86785813    -0.21600
C1461       C  0.14441259  0.81603044  0.89102805    -0.08100
C1462       C  0.11306023  0.81783562  0.90477975     0.12800
C1463       C  0.10312224  0.79648160  0.93457669    -0.24900
H1464       H  0.06484053  0.83896416  0.89677002     0.14100
H1465       H  0.17897639  0.84311734  0.86016180     0.14100
C1466       C  0.13959888  0.88941151  0.82722087    -0.24900
H1467       H  0.07836560  0.80298316  0.94236686     0.04300
H1468       H  0.12133080  0.80111715  0.95708404     0.07500
H1469       H  0.10165711  0.76895915  0.92744904     0.07500
H1470       H  0.13323773  0.91512977  0.83590149     0.07500
H1471       H  0.12581528  0.88357454  0.80204012     0.07500
H1472       H  0.16658223  0.89001532  0.82379781     0.04300
C1473       C  0.39159168  0.69804346  0.60537249    -0.21500
C1474       C  0.36026692  0.69358794  0.61828671    -0.08100
C1475       C  0.35473407  0.66607814  0.64102295     0.12800
C1476       C  0.38201026  0.64798701  0.65423645    -0.21600
C1477       C  0.41402529  0.65996257  0.64839827    -0.08100
C1478       C  0.41838295  0.67991247  0.61934651     0.12800
C1479       C  0.45242699  0.68629596  0.60721128    -0.24900
H1480       H  0.39549767  0.71637253  0.58526422     0.14100
H1481       H  0.37894070  0.62959029  0.67446896     0.14100
C1482       C  0.32110815  0.65691731  0.65319716    -0.24900
H1483       H  0.45178816  0.70338240  0.58458485     0.04300
H1484       H  0.46244267  0.66158185  0.59987288     0.07500
H1485       H  0.46943665  0.69846812  0.62785846     0.07500
H1486       H  0.30379377  0.64767009  0.63138857     0.07500
H1487       H  0.31115992  0.67956639  0.66533583     0.07500
H1488       H  0.32228979  0.63599367  0.67230306     0.04300
C1489       C  0.35677139  0.60220986  0.92059669    -0.21500
C1490       C  0.39099634  0.60658495  0.92835110    -0.08100
C1491       C  0.40509832  0.63838644  0.93987605     0.12800
C1492       C  0.38417230  0.66349501  0.94928843    -0.21600
C1493       C  0.34971422  0.65743007  0.94608236    -0.08100
C1494       C  0.33569910  0.62767658  0.92908495     0.12800
C1495       C  0.29886606  0.62201303  0.92088405    -0.24900
H1496       H  0.34641668  0.57769222  0.91109495     0.14100
H1497       H  0.39480762  0.68679108  0.96116749     0.14100
C1498       C  0.44470402  0.64254451  0.44383698    -0.24900
H1499       H  0.28909146  0.64401119  0.90600490     0.04300
H1500       H  0.28597276  0.61896158  0.94463567     0.07500
H1501       H  0.29302519  0.59851626  0.90519992     0.07500
H1502       H  0.45544339  0.63986419  0.41880409     0.07500
H1503       H  0.45312183  0.62699411  0.96426249     0.07500
H1504       H  0.45180301  0.66853869  0.45409749     0.04300
C1505       C  0.16666976  0.88361178  0.57536868    -0.21500
C1506       C  0.14961464  0.85371993  0.56242278    -0.08100
C1507       C  0.11471651  0.85023384  0.56284398     0.12800
C1508       C  0.09609438  0.87890589  0.07100126    -0.21600
C1509       C  0.11458580  0.91026951  0.57779591    -0.08100
C1510       C  0.14934759  0.91241667  0.58252684     0.12800
C1511       C  0.16797573  0.94538421  0.59329909    -0.24900
H1512       H  0.19355244  0.88553936  0.57661210     0.14100
H1513       H  0.06916640  0.87754942  0.06852982     0.14100
C1514       C  0.09381280  0.81828381  0.05041498    -0.24900
H1515       H  0.19522082  0.94226591  0.59591999     0.04300
H1516       H  0.16032874  0.95375099  0.61848509     0.07500
H1517       H  0.16267098  0.96563276  0.57408867     0.07500
H1518       H  0.10254889  0.79619507  0.06583987     0.07500
H1519       H  0.09668738  0.81341694  0.02290812     0.07500
H1520       H  0.06689608  0.82024540  0.05340417     0.04300
C1521       C  0.10989714  0.50334102  0.87436858    -0.21500
C1522       C  0.08698717  0.97612859  0.87388238    -0.08100
C1523       C  0.07610600  0.95884018  0.84295215     0.12800
C1524       C  0.09014386  0.96848927  0.81280191    -0.21600
C1525       C  0.11580438  0.49532008  0.81413364    -0.08100
C1526       C  0.12352270  0.51418335  0.84455177     0.12800
C1527       C  0.14804524  0.54430330  0.84574574    -0.24900
H1528       H  0.11668603  0.51723491  0.89805629     0.14100
H1529       H  0.08502471  0.95292356  0.78988407     0.14100
C1530       C  0.05059862  0.92959487  0.84172866    -0.24900
H1531       H  0.15060454  0.55698252  0.87128521     0.04300
H1532       H  0.17278755  0.53605089  0.83984883     0.07500
H1533       H  0.13958503  0.56319876  0.82626799     0.07500
H1534       H  0.02602612  0.93905551  0.84676837     0.07500
H1535       H  0.05792984  0.91032483  0.86128905     0.07500
H1536       H  0.04777769  0.91700372  0.81617174     0.04300
C1537       C  0.42597472  0.56390607  0.65188655    -0.21500
C1538       C  0.41174008  0.54672604  0.62231280    -0.08100
C1539       C  0.39109137  0.01401545  0.63111846     0.12800
C1540       C  0.38231111  0.00526657  0.66373140    -0.21600
C1541       C  0.39316157  0.02553836  0.69222651    -0.08100
C1542       C  0.41614450  0.55542999  0.68431784     0.12800
C1543       C  0.43148011  0.57445096  0.71554476    -0.24900
H1544       H  0.44531461  0.58362898  0.64960384     0.14100
H1545       H  0.36348967  0.98502830  0.66643512     0.14100
C1546       C  0.37731719  0.99170944  0.60137699    -0.24900
H1547       H  0.45044783  0.59411597  0.70888105     0.04300
H1548       H  0.44365142  0.55610539  0.73358729     0.07500
H1549       H  0.41221816  0.58736747  0.72861230     0.07500
H1550       H  0.39791565  0.98030105  0.58891766     0.07500
H1551       H  0.36238204  0.00708126  0.58256963     0.07500
H1552       H  0.36094733  0.97032147  0.60962200     0.04300
C1553       C  0.46568634  0.84926297  0.58538342    -0.21500
C1554       C  0.44175979  0.87367164  0.57909557    -0.08100
C1555       C  0.41048077  0.86906852  0.59240262     0.12800
C1556       C  0.40587176  0.84309243  0.61630053    -0.21600
C1557       C  0.43210508  0.82261624  0.62705809    -0.08100
C1558       C  0.46087416  0.82317613  0.60896544     0.12800
C1559       C  0.99215716  0.79547010  0.61808893    -0.24900
H1560       H  0.48920285  0.85230503  0.57410116     0.14100
H1561       H  0.38377864  0.84222907  0.63023847     0.14100
C1562       C  0.38353892  0.89387683  0.58490566    -0.24900
H1563       H  0.01340630  0.79980624  0.60216073     0.04300
H1564       H  0.47760298  0.77183961  0.61354255     0.07500
H1565       H  0.00177416  0.79815884  0.64535442     0.07500
H1566       H  0.37528502  0.89328512  0.55714862     0.07500
H1567       H  0.39280766  0.91999910  0.59263029     0.07500
H1568       H  0.36191269  0.88750224  0.59953953     0.04300
C1569       C  0.56895343  0.69120623  0.90204612    -0.21500
C1570       C  0.09313413  0.67759327  0.87266257    -0.08100
C1571       C  0.10478796  0.64430017  0.87084005     0.12800
C1572       C  0.09334692  0.61937031  0.89292372    -0.21600
C1573       C  0.07133106  0.62778180  0.91702741    -0.08100
C1574       C  0.55793169  0.66557639  0.92383178     0.12800
C1575       C  0.53288067  0.67329561  0.94874963    -0.24900
H1576       H  0.55730493  0.71563877  0.90137980     0.14100
H1577       H  0.09967386  0.59292371  0.88966856     0.14100
C1578       C  0.12503613  0.63369558  0.84238554    -0.24900
H1579       H  0.52616844  0.70052861  0.94766245     0.04300
H1580       H  0.54317905  0.66771207  0.97520091     0.07500
H1581       H  0.51006186  0.65707663  0.94267241     0.07500
H1582       H  0.14771112  0.62146894  0.85335961     0.07500
H1583       H  0.13287668  0.65593162  0.82696145     0.07500
H1584       H  0.11014157  0.61521627  0.82520260     0.04300
C1585       C  0.85295935  0.34710217  0.39513687     0.85300
C1586       C  0.83256109  0.36930381  0.36939912    -0.55000
C1587       C  0.85018484  0.39124095  0.34958798     0.08200
C1588       C  0.88902676  0.38839868  0.35762934     0.19100
C1589       C  0.87642563  0.32841791  0.37216805    -0.55700
C1590       C  0.89589638  0.34920968  0.35216214     0.08300
C1591       C  0.87619322  0.37309445  0.41580495    -0.55200
C1592       C  0.89529509  0.39503265  0.39743537     0.08900
H1593       H  0.80563558  0.36827537  0.36759744     0.13400
H1594       H  0.90383967  0.40602210  0.34209917    -0.00900
H1595       H  0.87728738  0.30073360  0.37169731     0.13700
H1596       H  0.87684062  0.37435056  0.44355905     0.13500
C1597       C  0.60130854  0.11302788  0.10827818     0.85300
C1598       C  0.62313360  0.13853849  0.08914388    -0.55000
C1599       C  0.64406608  0.16031901  0.10915896     0.08200
C1600       C  0.64005248  0.15435369  0.14895514     0.19100
C1601       C  0.62581953  0.09468850  0.13312923    -0.55700
C1602       C  0.64662540  0.11507169  0.15483583     0.08300
C1603       C  0.58229285  0.13541861  0.13172091    -0.55200
C1604       C  0.60130153  0.15719895  0.15379273     0.08900
H1605       H  0.62263305  0.13871813  0.06137419     0.13400
H1606       H  0.65636706  0.17157626  0.16618133    -0.00900
H1607       H  0.62641979  0.06694692  0.13341656     0.13700
H1608       H  0.55544077  0.13325666  0.13153762     0.13500
N1609       N  0.55979044  0.48179903  0.45256208    -0.07300
N1610       N  0.58503747  0.47350290  0.43531784    -0.59500
N1611       N  0.02491101  0.05530553  0.44058517    -0.07000
N1612       N  0.02608848  0.08182321  0.41970582    -0.61600
N1613       N  0.54917368  0.05893371  0.46477153    -0.06600
N1614       N  0.56757988  0.08706289  0.46160302    -0.59400
N1615       N  0.53212212  0.47751921  0.43235693    -0.06300
N1616       N  0.53805723  0.46523154  0.40251344    -0.61900
C1617       C  0.57098737  0.46329564  0.40402738     0.94800
C1618       C  0.55134679  0.10350272  0.43577919     0.94600
N1619       N  0.92873080  0.03197552  0.46806935    -0.07500
N1620       N  0.90230532  0.05488426  0.96725863    -0.60000
N1621       N  0.95232070  0.46385601  0.43171758    -0.05600
N1622       N  0.94230145  0.44296460  0.40537407    -0.61300
N1623       N  0.93387728  0.45781168  0.45731192    -0.07600
N1624       N  0.91155412  0.43275984  0.44918174    -0.60300
N1625       N  0.94785091  0.03912259  0.44335288    -0.05300
N1626       N  0.93698673  0.06512914  0.42504819    -0.61400
Mn1627     Mn  0.98996371  0.00864171  0.43661089     1.18400
C1628       C  0.90943077  0.07277652  0.44005322     0.96900
C1629       C  0.91675523  0.42323705  0.41673870     0.97600
N1630       N  0.56432775  0.05250144  0.04369202    -0.07600
N1631       N  0.58623698  0.07792865  0.05265430    -0.63900
N1632       N  0.55072762  0.47077100  0.06178924    -0.06400
N1633       N  0.56112927  0.44598366  0.08211165    -0.64600
N1634       N  0.57250098  0.47547671  0.53508916    -0.07100
N1635       N  0.59797782  0.45571796  0.53950726    -0.64100
N1636       N  0.54507462  0.04624693  0.06857518    -0.06000
N1637       N  0.55387871  0.06706817  0.09503624    -0.64800
Mn1638     Mn  0.56148030  0.01812082  0.49942043     1.10700
C1639       C  0.57931460  0.08746262  0.08470355     0.98100
C1640       C  0.58954444  0.43769634  0.06916489     0.98200
N1641       N  0.95238606  0.44953529  0.03867161    -0.07100
N1642       N  0.93617156  0.41980698  0.04067745    -0.62500
N1643       N  0.96894687  0.03190342  0.07043850    -0.06400
N1644       N  0.96298242  0.04570026  0.09966724    -0.59200
N1645       N  0.94154806  0.02792634  0.04996702    -0.07700
N1646       N  0.91632331  0.03859892  0.06584877    -0.62000
N1647       N  0.97842218  0.45181344  0.06123143    -0.06700
N1648       N  0.47373983  0.42900545  0.08144674    -0.59200
Mn1649     Mn  0.93924560  0.49086554  0.00423766     1.20200
Mn1650     Mn  0.50901211  0.50244097  0.06653108     1.10100
Cl1651     Cl  0.00146979  0.00421358  0.50094351    -0.87200
C1652       C  0.95405315  0.40353528  0.06563361     0.95100
C1653       C  0.93014082  0.04939963  0.09695595     0.94900
N1654       N  0.79804574  0.19486523  0.50406038    -0.07300
N1655       N  0.80566337  0.16729136  0.48773049    -0.59500
N1656       N  0.81120775  0.24808112  0.06605195    -0.07000
N1657       N  0.83897991  0.24447223  0.08557426    -0.61600
N1658       N  0.78940167  0.22337090  0.07308334    -0.06600
N1659       N  0.80214916  0.20369429  0.09741910    -0.59400
N1660       N  0.81785873  0.22106267  0.49665772    -0.06300
N1661       N  0.83933237  0.21152258  0.47535658    -0.61900
C1662       C  0.83098885  0.17806084  0.46972149     0.94800
C1663       C  0.83310770  0.21652273  0.10471723     0.94600
N1664       N  0.77561133  0.33880139  0.01953158    -0.07500
N1665       N  0.77213723  0.36944743  0.03213374    -0.60000
N1666       N  0.81537426  0.29651690  0.46298054    -0.05600
N1667       N  0.84194619  0.30513096  0.44608357    -0.61300
N1668       N  0.78897826  0.31049317  0.44813453    -0.07600
N1669       N  0.79728938  0.32877409  0.42115184    -0.60300
N1670       N  0.80117379  0.32415492  0.03510334    -0.05300
N1671       N  0.81573732  0.34476695  0.05935593    -0.61400
Mn1672     Mn  0.81246622  0.27308204  0.01515619     1.18400
C1673       C  0.79717784  0.37305101  0.05684017     0.96900
C1674       C  0.83056444  0.32506928  0.41927942     0.97600
N1675       N  0.71057560  0.20012510  0.06424105    -0.07600
N1676       N  0.70128472  0.18080342  0.09024609    -0.63900
N1677       N  0.69942041  0.18642536  0.47782006    -0.06400
N1678       N  0.68608419  0.16656159  0.45241209    -0.64600
N1679       N  0.72423183  0.17150190  0.49439145    -0.07100
N1680       N  0.72839923  0.14121096  0.48120855    -0.64100
N1681       N  0.68460519  0.21450548  0.04893600    -0.06000
N1682       N  0.65755602  0.20528170  0.06450685    -0.64800
Mn1683     Mn  0.75588755  0.19829695  0.03406533     1.10700
C1684       C  0.66797113  0.18491535  0.09122994     0.98100
C1685       C  0.70435509  0.13818925  0.45536139     0.98200
N1686       N  0.71127881  0.28596022  0.43864883    -0.07900
N1687       N  0.69907528  0.30510782  0.41366348    -0.62500
N1688       N  0.68128464  0.28938091  0.01614103    -0.06400
N1689       N  0.65861463  0.29781499  0.03645594    -0.59200
N1690       N  0.70084568  0.31607523  0.00976437    -0.07700
N1691       N  0.69166177  0.34319080  0.02595363    -0.62000
N1692       N  0.68946866  0.26122832  0.44548230    -0.06700
N1693       N  0.66200977  0.26441038  0.42535607    -0.59200
Mn1694     Mn  0.74329295  0.31212791  0.47796479     1.20200
Mn1695     Mn  0.68767765  0.23726623  0.49657569     1.10100
Cl1696     Cl  0.75021524  0.25611950  0.00623356    -0.87200
C1697       C  0.66821746  0.29212940  0.40611418     0.95100
C1698       C  0.66543739  0.33135856  0.04242610     0.94900
N1699       N  0.96949640  0.19398819  0.29524691    -0.07300
N1700       N  0.95797026  0.16912693  0.31446257    -0.59500
N1701       N  0.94291462  0.21122251  0.21818309    -0.07000
N1702       N  0.91961742  0.20321968  0.19387210    -0.61600
N1703       N  0.96696424  0.18961068  0.21768477    -0.06600
N1704       N  0.96070709  0.16669793  0.19293301    -0.59400
N1705       N  0.95011951  0.22005767  0.29646374    -0.06300
N1706       N  0.92726516  0.21445785  0.31762981    -0.61900
C1707       C  0.93101052  0.18219273  0.32781746     0.94800
C1708       C  0.93087801  0.17547973  0.17873861     0.94600
N1709       N  0.45823247  0.31634514  0.21323730    -0.07500
N1710       N  0.45419379  0.33469512  0.18541887    -0.60000
N1711       N  0.93730776  0.29717359  0.29238403    -0.05600
N1712       N  0.91330456  0.30156129  0.31306006    -0.61300
N1713       N  0.95758898  0.32430291  0.29283018    -0.07600
N1714       N  0.94685040  0.34811600  0.31368468    -0.60300
N1715       N  0.93775204  0.29025752  0.21222817    -0.05300
N1716       N  0.92254234  0.28643268  0.18113294    -0.61400
Mn1717     Mn  0.94146455  0.25437823  0.25479772     1.18400
C1718       C  0.93545114  0.31315346  0.16403787     0.96900
C1719       C  0.91898618  0.33347916  0.32672483     0.97600
N1720       N  0.54693263  0.19032170  0.21502868    -0.07600
N1721       N  0.55470049  0.16593612  0.19361275    -0.63900
N1722       N  0.57048495  0.22167575  0.29517837    -0.06400
N1723       N  0.59091342  0.22067895  0.32329839    -0.64600
N1724       N  0.04766309  0.19798939  0.29663589    -0.07100
N1725       N  0.05280209  0.17872562  0.32364674    -0.64100
N1726       N  0.56949193  0.21553748  0.21568601    -0.06000
N1727       N  0.59309263  0.20851655  0.19494602    -0.64800
Mn1728     Mn  0.00764058  0.19211269  0.25653621     1.10700
C1729       C  0.58369520  0.17725055  0.18084996     0.98100
C1730       C  0.58058118  0.19141621  0.33828389     0.98200
N1731       N  0.53961977  0.32328594  0.29150426    -0.07100
N1732       N  0.54681577  0.34691671  0.31535757    -0.62500
N1733       N  0.55709065  0.29450366  0.21345430    -0.06400
N1734       N  0.57866494  0.30009391  0.19088310    -0.59200
N1735       N  0.53592959  0.31921124  0.21363063    -0.07700
N1736       N  0.54414549  0.34264928  0.19115337    -0.62000
N1737       N  0.56373244  0.30161725  0.29067982    -0.06700
N1738       N  0.58782260  0.31038595  0.31382412    -0.59200
Mn1739     Mn  0.49822200  0.32184021  0.25312488     1.20200
Mn1740     Mn  0.56598735  0.25883248  0.25382646     1.10100
Cl1741     Cl  0.50374001  0.25629832  0.25390914    -0.87200
C1742       C  0.57711847  0.33859115  0.32853904     0.95100
C1743       C  0.57125740  0.33044983  0.17730844     0.94900
N1744       N  0.78901327  0.43941212  0.29950782    -0.07300
N1745       N  0.79838864  0.41034739  0.31418666    -0.59500
N1746       N  0.77388860  0.01150102  0.33881217    -0.07000
N1747       N  0.77123996  0.03561894  0.36173869    -0.61600
N1748       N  0.74773711  0.99035103  0.33697134    -0.06600
N1749       N  0.72651432  0.00022217  0.35873610    -0.59400
N1750       N  0.81426032  0.46193254  0.30164569    -0.06300
N1751       N  0.84100044  0.44826077  0.31762740    -0.61900
C1752       C  0.83117239  0.41554632  0.32497953     0.94800
C1753       C  0.74189646  0.02827530  0.37439854     0.94600
N1754       N  0.77807229  0.08796078  0.26652565    -0.07500
N1755       N  0.78449802  0.12120494  0.27027082    -0.60000
N1756       N  0.83142032  0.52521747  0.25112257    -0.05600
N1757       N  0.86178325  0.51612014  0.24617794    -0.61300
N1758       N  0.81857992  0.54194780  0.22432084    -0.07600
N1759       N  0.83969790  0.54476658  0.20095753    -0.60300
N1760       N  0.79120810  0.07184542  0.29369290    -0.05300
N1761       N  0.80519321  0.09394119  0.31622131    -0.61400
Mn1762     Mn  0.80431746  0.01761166  0.29619194     1.18400
C1763       C  0.80203667  0.12457369  0.30123589     0.96900
C1764       C  0.86623073  0.52897355  0.21480876     0.97600
N1765       N  0.68808568  0.97583116  0.28418954    -0.07600
N1766       N  0.66685931  0.97265262  0.30745134    -0.63900
N1767       N  0.71527614  0.44650698  0.21274726    -0.06400
N1768       N  0.69975246  0.42652837  0.18921416    -0.64600
N1769       N  0.72320015  0.42928405  0.24097961    -0.07100
N1770       N  0.70981128  0.39779779  0.23733610    -0.64100
N1771       N  0.67536091  0.99239088  0.25731534    -0.06000
N1772       N  0.64478017  0.00103938  0.26205745    -0.64800
Mn1773     Mn  0.73659336  0.45794101  0.28982586     1.10700
C1774       C  0.64016941  0.98808069  0.29340170     0.98100
C1775       C  0.69544145  0.39644899  0.20462253     0.98200
N1776       N  0.76049685  0.52708661  0.17030421    -0.07100
N1777       N  0.78265626  0.51688245  0.14970997    -0.62500
N1778       N  0.69123201  0.05394187  0.20679493    -0.06400
N1779       N  0.66334776  0.06474285  0.19122789    -0.59200
N1780       N  0.71492774  0.07788485  0.20656820    -0.07700
N1781       N  0.70309308  0.10549797  0.19021643    -0.62000
N1782       N  0.73471929  0.50548674  0.16846732    -0.06700
N1783       N  0.73849025  0.48066698  0.14657043    -0.59200
Mn1784     Mn  0.76790835  0.06041676  0.21733849     1.20200
Mn1785     Mn  0.70366744  0.50046636  0.21096261     1.10100
Cl1786     Cl  0.75375889  0.00863222  0.25427459    -0.87200
C1787       C  0.76808953  0.48821819  0.13454214     0.95100
C1788       C  0.67025484  0.09727424  0.18125068     0.94900
C1789       C  0.84132739  0.16036138  0.33871116    -0.21500
C1790       C  0.83184301  0.14706987  0.30587843    -0.08100
C1791       C  0.85611570  0.14423470  0.28215462     0.12800
C1792       C  0.88943495  0.14949342  0.29335370    -0.21600
C1793       C  0.89917334  0.16305695  0.32591486    -0.08100
C1794       C  0.87445325  0.17112547  0.34775168     0.12800
C1795       C  0.88276266  0.19324325  0.37895539    -0.24900
H1796       H  0.82277317  0.16277361  0.35692479     0.14100
H1797       H  0.90784683  0.14655339  0.27506049     0.14100
C1798       C  0.84742754  0.13572327  0.24486374    -0.24900
H1799       H  0.86106901  0.19553291  0.39425778     0.04300
H1800       H  0.89051242  0.21942221  0.37114144     0.07500
H1801       H  0.90363505  0.18251477  0.39487283     0.07500
H1802       H  0.82872280  0.15343784  0.23383742     0.07500
H1803       H  0.83784978  0.10890453  0.24190354     0.07500
H1804       H  0.86929199  0.13892505  0.22976527     0.04300
C1805       C  0.66056579  0.35145700  0.17255050    -0.21500
C1806       C  0.66312589  0.37896742  0.19556255    -0.08100
C1807       C  0.63397272  0.39528329  0.20321546     0.12800
C1808       C  0.60317059  0.38319868  0.18863133    -0.21600
C1809       C  0.60006180  0.35262456  0.17004433    -0.08100
C1810       C  0.62927773  0.33764718  0.16009150     0.12800
C1811       C  0.62803587  0.30538086  0.13887202    -0.24900
H1812       H  0.68287900  0.34030769  0.16487825     0.14100
H1813       H  0.58111595  0.39526364  0.19583534     0.14100
C1814       C  0.63492587  0.42542837  0.22722330    -0.24900
H1815       H  0.64314193  0.30924675  0.11675472     0.04300
H1816       H  0.60233055  0.29776582  0.12883314     0.07500
H1817       H  0.63844349  0.28423394  0.15467162     0.07500
H1818       H  0.64735397  0.44755966  0.21540227     0.07500
H1819       H  0.64822601  0.41903216  0.25215115     0.07500
H1820       H  0.60970841  0.43312893  0.23240264     0.04300
C1821       C  0.79086540  0.43078532  0.13302885    -0.21500
C1822       C  0.78540274  0.46210139  0.11638923    -0.08100
C1823       C  0.78989369  0.46489671  0.08125657     0.12800
C1824       C  0.79795650  0.43577656  0.06312477    -0.21600
C1825       C  0.80059806  0.40373053  0.07912704    -0.08100
C1826       C  0.79791613  0.40137989  0.11473444     0.12800
C1827       C  0.79919283  0.36742213  0.13279093    -0.24900
H1828       H  0.78688741  0.42869540  0.16005651     0.14100
H1829       H  0.79953949  0.43739951  0.03561487     0.14100
C1830       C  0.78356132  0.49780220  0.06247269    -0.24900
H1831       H  0.79594149  0.37012534  0.16054093     0.04300
H1832       H  0.82347341  0.35600513  0.13023291     0.07500
H1833       H  0.77907391  0.34969777  0.12139975     0.07500
H1834       H  0.80037759  0.51861202  0.07404406     0.07500
H1835       H  0.75742214  0.50470304  0.06426406     0.07500
H1836       H  0.78787356  0.49560714  0.03491948     0.04300
C1837       C  0.69985975  0.07636162  0.44207583    -0.21500
C1838       C  0.70389576  0.11011704  0.43025699    -0.08100
C1839       C  0.71619463  0.11602538  0.39810182     0.12800
C1840       C  0.72652880  0.08826585  0.37957622    -0.21600
C1841       C  0.72504715  0.05478823  0.39261008    -0.08100
C1842       C  0.70998728  0.04847537  0.42325992     0.12800
C1843       C  0.70616660  0.01275460  0.43697189    -0.24900
H1844       H  0.69072992  0.07208826  0.46679741     0.14100
H1845       H  0.73734197  0.09292906  0.35564889     0.14100
C1846       C  0.72097313  0.15181393  0.38451543    -0.24900
H1847       H  0.69431585  0.01242869  0.46154258     0.04300
H1848       H  0.73088796  0.00154183  0.44140665     0.07500
H1849       H  0.69034620  0.99662699  0.41820141     0.07500
H1850       H  0.73802812  0.16737201  0.40264158     0.07500
H1851       H  0.69681200  0.16426357  0.38139606     0.07500
H1852       H  0.73163656  0.15181832  0.35928541     0.04300
C1853       C  0.58785586  0.33783181  0.38808716    -0.21500
C1854       C  0.59560036  0.35432180  0.35805637    -0.08100
C1855       C  0.62904753  0.36110046  0.35280201     0.12800
C1856       C  0.65239790  0.33981706  0.36858888    -0.21600
C1857       C  0.64264773  0.31469701  0.39180097    -0.08100
C1858       C  0.61066380  0.31589895  0.40419818     0.12800
C1859       C  0.59995784  0.29426592  0.43347593    -0.24900
H1860       H  0.56217832  0.33595320  0.39415091     0.14100
H1861       H  0.67777263  0.34178705  0.36162520     0.14100
C1862       C  0.63869160  0.38621283  0.32592293    -0.24900
H1863       H  0.57465989  0.30016360  0.44015480     0.04300
H1864       H  0.61723641  0.29924307  0.45664535     0.07500
H1865       H  0.59938760  0.26676161  0.42635311     0.07500
H1866       H  0.63172572  0.41217027  0.33321688     0.07500
H1867       H  0.62573403  0.37921398  0.30061542     0.07500
H1868       H  0.66583762  0.38700076  0.32335701     0.04300
C1869       C  0.89111030  0.19922927  0.10495841    -0.21500
C1870       C  0.85977018  0.19435802  0.11775491    -0.08100
C1871       C  0.85434438  0.16632904  0.13990427     0.12800
C1872       C  0.88179166  0.14848456  0.15311058    -0.21600
C1873       C  0.91375716  0.16100483  0.14773531    -0.08100
C1874       C  0.91805636  0.18132438  0.11892502     0.12800
C1875       C  0.95207518  0.18807477  0.10689385    -0.24900
H1876       H  0.89495871  0.21786624  0.08508230     0.14100
H1877       H  0.87877678  0.12955639  0.17286062     0.14100
C1878       C  0.82065733  0.15628723  0.15144547    -0.24900
H1879       H  0.95135120  0.20535105  0.08440342     0.04300
H1880       H  0.96226103  0.16351457  0.09935188     0.07500
H1881       H  0.96897187  0.20016377  0.12767041     0.07500
H1882       H  0.80373409  0.14730183  0.12920934     0.07500
H1883       H  0.81020829  0.17843330  0.16395458     0.07500
H1884       H  0.82192150  0.13496528  0.17011417     0.04300
C1885       C  0.85719339  0.09920996  0.42641818    -0.21500
C1886       C  0.89142896  0.10343072  0.43369474    -0.08100
C1887       C  0.90588162  0.13492333  0.44575931     0.12800
C1888       C  0.88518370  0.16036880  0.45498658    -0.21600
C1889       C  0.85066440  0.15467749  0.45163758    -0.08100
C1890       C  0.83638131  0.12470586  0.43520167     0.12800
C1891       C  0.79949894  0.11881169  0.42776207    -0.24900
H1892       H  0.84664819  0.07475894  0.41687172     0.14100
H1893       H  0.89598405  0.18367084  0.46671629     0.14100
C1894       C  0.94091731  0.14286014  0.94826748    -0.24900
H1895       H  0.78950022  0.14061552  0.41281866     0.04300
H1896       H  0.78707670  0.11591978  0.45182591     0.07500
H1897       H  0.79342637  0.09512903  0.41242139     0.07500
H1898       H  0.95240486  0.13800545  0.92402107     0.07500
H1899       H  0.95361229  0.12250068  0.47021019     0.07500
H1900       H  0.94780721  0.16959421  0.95645666     0.04300
C1901       C  0.66098935  0.38314950  0.07661642    -0.21500
C1902       C  0.64527013  0.35352932  0.06160788    -0.08100
C1903       C  0.61034202  0.34859204  0.06112192     0.12800
C1904       C  0.59253154  0.37618248  0.56930292    -0.21600
C1905       C  0.60773548  0.40764264  0.07890427    -0.08100
C1906       C  0.64236951  0.41049101  0.08541602     0.12800
C1907       C  0.65951268  0.44293115  0.09988895    -0.24900
H1908       H  0.68785341  0.38597404  0.07888961     0.14100
H1909       H  0.56567771  0.37513011  0.56495494     0.14100
C1910       C  0.59118569  0.31659659  0.54603669    -0.24900
H1911       H  0.68680835  0.44052110  0.10377782     0.04300
H1912       H  0.65023892  0.44864853  0.12511281     0.07500
H1913       H  0.65456567  0.46465396  0.08232184     0.07500
H1914       H  0.59861791  0.29394923  0.56135471     0.07500
H1915       H  0.59605223  0.31263738  0.51885967     0.07500
H1916       H  0.56398125  0.31870362  0.54695820     0.04300
C1917       C  0.60724398  0.99991862  0.37424997    -0.21500
C1918       C  0.58661996  0.47101563  0.37240419    -0.08100
C1919       C  0.57489661  0.45546311  0.34072709     0.12800
C1920       C  0.58850660  0.46657372  0.31074455    -0.21600
C1921       C  0.61260533  0.99324737  0.31376905    -0.08100
C1922       C  0.62038623  0.01147012  0.34453428     0.12800
C1923       C  0.64541691  0.04100170  0.34729705    -0.24900
H1924       H  0.61465516  0.01334618  0.39809604     0.14100
H1925       H  0.58310508  0.45208223  0.28718142     0.14100
C1926       C  0.54855718  0.42700772  0.33836529    -0.24900
H1927       H  0.63457554  0.06319366  0.35914808     0.04300
H1928       H  0.66720163  0.03333554  0.36382535     0.07500
H1929       H  0.65354207  0.04894369  0.32201370     0.07500
H1930       H  0.52436239  0.43700153  0.34402086     0.07500
H1931       H  0.55528591  0.40673015  0.35701144     0.07500
H1932       H  0.54523321  0.41560620  0.31225630     0.04300
C1933       C  0.92514517  0.06681126  0.15630528    -0.21500
C1934       C  0.91342935  0.04564787  0.12847991    -0.08100
C1935       C  0.89195029  0.50970299  0.13328295     0.12800
C1936       C  0.88352421  0.50132155  0.16613786    -0.21600
C1937       C  0.89308059  0.52301658  0.19392651    -0.08100
C1938       C  0.91555111  0.06009236  0.18921730     0.12800
C1939       C  0.92755992  0.08336095  0.21872180    -0.24900
H1940       H  0.94203326  0.08843063  0.15226818     0.14100
H1941       H  0.86544741  0.48045298  0.16933811     0.14100
C1942       C  0.87789736  0.48730454  0.10376838    -0.24900
H1943       H  0.94475313  0.10405011  0.21071919     0.04300
H1944       H  0.94099647  0.06834776  0.23903407     0.07500
H1945       H  0.90630575  0.09513647  0.22954882     0.07500
H1946       H  0.89832489  0.47668743  0.09043036     0.07500
H1947       H  0.86213653  0.50249185  0.08552511     0.07500
H1948       H  0.86218759  0.46553553  0.11238469     0.04300
C1949       C  0.96511659  0.34519933  0.08577666    -0.21500
C1950       C  0.94277127  0.37137767  0.08094175    -0.08100
C1951       C  0.91199418  0.36870351  0.09560542     0.12800
C1952       C  0.90578585  0.34160762  0.11772282    -0.21600
C1953       C  0.93084399  0.31939730  0.12746526    -0.08100
C1954       C  0.95942406  0.31900119  0.10909884     0.12800
C1955       C  0.45730816  0.28953692  0.10617069    -0.24900
H1956       H  0.98835575  0.34700685  0.07382468     0.14100
H1957       H  0.88408518  0.34172242  0.13223054     0.14100
C1958       C  0.88814491  0.39710445  0.09261727    -0.24900
H1959       H  0.47301202  0.28842113  0.08427473     0.04300
H1960       H  0.97458854  0.26709131  0.11365501     0.07500
H1961       H  0.47348406  0.28647800  0.13017409     0.07500
H1962       H  0.87894193  0.40080746  0.06547549     0.07500
H1963       H  0.90117977  0.42072602  0.10314817     0.07500
H1964       H  0.86650810  0.39192781  0.10765070     0.04300
C1965       C  0.07349208  0.18934414  0.40092721    -0.21500
C1966       C  0.59065608  0.17997910  0.37264137    -0.08100
C1967       C  0.60499014  0.14783207  0.37526591     0.12800
C1968       C  0.59332171  0.12397115  0.39833774    -0.21600
C1969       C  0.56728469  0.13172284  0.41803823    -0.08100
C1970       C  0.06081157  0.16329298  0.42127393     0.12800
C1971       C  0.03741818  0.17164122  0.44771688    -0.24900
H1972       H  0.06412265  0.21480727  0.40240385     0.14100
H1973       H  0.60247417  0.09830809  0.39870610     0.14100
C1974       C  0.62873301  0.13657125  0.35029928    -0.24900
H1975       H  0.03355730  0.19953957  0.44904695     0.04300
H1976       H  0.04766933  0.16317607  0.47332613     0.07500
H1977       H  0.01301519  0.15823067  0.44121635     0.07500
H1978       H  0.65083756  0.12607551  0.36447302     0.07500
H1979       H  0.63717251  0.15812531  0.33432308     0.07500
H1980       H  0.61642788  0.11635166  0.33316286     0.04300
C1981       C  0.85341960  0.34819250  0.89485937     0.85300
C1982       C  0.83305109  0.37075800  0.86954419    -0.55000
C1983       C  0.85064985  0.39276677  0.84982436     0.08200
C1984       C  0.88951975  0.38978202  0.85770211     0.19100
C1985       C  0.87669083  0.32968362  0.87151018    -0.55700
C1986       C  0.89618771  0.35067944  0.85168770     0.08300
C1987       C  0.87684765  0.37373781  0.91575707    -0.55200
C1988       C  0.89603368  0.39574457  0.89760701     0.08900
H1989       H  0.80612779  0.36972673  0.86777646     0.13400
H1990       H  0.90435500  0.40754268  0.84233290    -0.00900
H1991       H  0.87740384  0.30199779  0.87065195     0.13700
H1992       H  0.87771084  0.37450417  0.94354559     0.13500
C1993       C  0.59998511  0.11472017  0.60924463     0.85300
C1994       C  0.62154437  0.14052707  0.59030852    -0.55000
C1995       C  0.64259607  0.16199885  0.61046188     0.08200
C1996       C  0.63865094  0.15568595  0.65023670     0.19100
C1997       C  0.62468202  0.09620443  0.63367735    -0.55700
C1998       C  0.64547313  0.11641818  0.65552587     0.08300
C1999       C  0.58088407  0.13659242  0.63305920    -0.55200
C2000       C  0.59981092  0.15819238  0.65533899     0.08900
H2001       H  0.62103858  0.14088226  0.56253686     0.13400
H2002       H  0.65499312  0.17276976  0.66757835    -0.00900
H2003       H  0.62550275  0.06847608  0.63347796     0.13700
H2004       H  0.55403607  0.13425123  0.63291936     0.13500
N2005       N  0.55866481  0.48389447  0.95512012    -0.07300
N2006       N  0.58397051  0.47659623  0.93750438    -0.59500
N2007       N  0.02364321  0.05813777  0.94261895    -0.07000
N2008       N  0.02450628  0.08513517  0.92238007    -0.61600
N2009       N  0.54896574  0.05791064  0.96406293    -0.06600
N2010       N  0.56701405  0.08636478  0.96159113    -0.59400
N2011       N  0.53095641  0.47955016  0.93502031    -0.06300
N2012       N  0.53690344  0.46804257  0.90486998    -0.61900
C2013       C  0.56986459  0.46663495  0.90619209     0.94800
C2014       C  0.55064504  0.10296945  0.93602246     0.94600
N2015       N  0.92747518  0.03467422  0.96908031    -0.07500
N2016       N  0.90401562  0.05264897  0.46712564    -0.60000
N2017       N  0.95452226  0.46267799  0.93292479    -0.05600
N2018       N  0.94381889  0.44266625  0.90613181    -0.61300
N2019       N  0.93637201  0.45621531  0.95866929    -0.07600
N2020       N  0.91355720  0.43175129  0.95017206    -0.60300
N2021       N  0.94674014  0.04160311  0.94443919    -0.05300
N2022       N  0.93552762  0.06688838  0.92532368    -0.61400
Mn2023     Mn  0.98906550  0.01138018  0.93792675     1.18400
C2024       C  0.90762888  0.07444142  0.93970573     0.96900
C2025       C  0.91817570  0.42303393  0.91736472     0.97600
N2026       N  0.56403015  0.05404449  0.54464293    -0.07600
N2027       N  0.58565142  0.07969195  0.55362155    -0.63900
N2028       N  0.55223341  0.46979249  0.55907884    -0.06400
N2029       N  0.56289672  0.44577333  0.58016040    -0.64600
N2030       N  0.57078033  0.47658199  0.03758631    -0.07100
N2031       N  0.59581825  0.45620747  0.04111980    -0.64100
N2032       N  0.54462773  0.04777718  0.56938403    -0.06000
N2033       N  0.55294862  0.06881012  0.59573386    -0.64800
Mn2034     Mn  0.56129631  0.01692709  0.99808192     1.10700
C2035       C  0.57825160  0.08935212  0.58547738     0.98100
C2036       C  0.59170942  0.43778068  0.56794213     0.98200
N2037       N  0.94939384  0.45166870  0.53701147    -0.07100
N2038       N  0.93348912  0.42169850  0.53824132    -0.62500
N2039       N  0.96976716  0.02937770  0.56918126    -0.06400
N2040       N  0.96360366  0.04270462  0.59855797    -0.59200
N2041       N  0.94240763  0.02507831  0.54873003    -0.07700
N2042       N  0.91699683  0.03505767  0.56474008    -0.62000
N2043       N  0.97525732  0.45386155  0.55976532    -0.06700
N2044       N  0.47652817  0.42693691  0.57668843    -0.59200
Mn2045     Mn  0.93661037  0.49288383  0.50271489     1.20200
Mn2046     Mn  0.51027166  0.50102412  0.56320020     1.10100
Cl2047     Cl  0.00031973  0.00641157  0.00223434    -0.87200
C2048       C  0.95135669  0.40517260  0.56299191     0.95100
C2049       C  0.93068861  0.04581735  0.59589167     0.94900
N2050       N  0.79799103  0.19597852  0.00195542    -0.07300
N2051       N  0.80459886  0.16893402  0.98421511    -0.59500
N2052       N  0.80991063  0.24836904  0.56732089    -0.07000
N2053       N  0.83748214  0.24563785  0.58738160    -0.61600
N2054       N  0.78848406  0.22328235  0.57434771    -0.06600
N2055       N  0.80136080  0.20415915  0.59910096    -0.59400
N2056       N  0.81779921  0.22218797  0.99469214    -0.06300
N2057       N  0.83820136  0.21327837  0.97206568    -0.61900
C2058       C  0.82923215  0.18014601  0.96546576     0.94800
C2059       C  0.83200065  0.21774492  0.60674316     0.94600
N2060       N  0.77398051  0.33830660  0.51868226    -0.07500
N2061       N  0.76999417  0.36920664  0.53048020    -0.60000
N2062       N  0.81594185  0.29759816  0.96254937    -0.05600
N2063       N  0.84239539  0.30589486  0.94538191    -0.61300
N2064       N  0.78962234  0.31205642  0.94817539    -0.07600
N2065       N  0.79786154  0.33037080  0.92119756    -0.60300
N2066       N  0.79950537  0.32420803  0.53493745    -0.05300
N2067       N  0.81347312  0.34553962  0.55891336    -0.61400
Mn2068     Mn  0.81161188  0.27262831  0.51601361     1.18400
C2069       C  0.79465844  0.37366454  0.55546369     0.96900
C2070       C  0.83100210  0.32615542  0.91887382     0.97600
N2071       N  0.70971565  0.19969451  0.56512160    -0.07600
N2072       N  0.70018374  0.18122501  0.59161582    -0.63900
N2073       N  0.69967773  0.18807470  0.97680116    -0.06400
N2074       N  0.68605467  0.16817813  0.95153288    -0.64600
N2075       N  0.72448904  0.17298982  0.99318035    -0.07100
N2076       N  0.72841120  0.14264273  0.98004094    -0.64100
N2077       N  0.68393483  0.21404287  0.54944593    -0.06000
N2078       N  0.65681179  0.20577578  0.56523822    -0.64800
Mn2079     Mn  0.75535549  0.19743045  0.53538052     1.10700
C2080       C  0.66693580  0.18596258  0.59246745     0.98100
C2081       C  0.70429064  0.13972509  0.95429879     0.98200
N2082       N  0.71187834  0.28844619  0.93899858    -0.07900
N2083       N  0.70001871  0.30774780  0.91397056    -0.62500
N2084       N  0.68032973  0.28777848  0.51559031    -0.06400
N2085       N  0.65791233  0.29620001  0.53620881    -0.59200
N2086       N  0.69981824  0.31442469  0.50896288    -0.07700
N2087       N  0.69089996  0.34152372  0.52529277    -0.62000
N2088       N  0.68993459  0.26372567  0.94551253    -0.06700
N2089       N  0.66266714  0.26707341  0.92511400    -0.59200
Mn2090     Mn  0.74425802  0.31379532  0.97850657     1.20200
Mn2091     Mn  0.68818982  0.23885345  0.99633232     1.10100
Cl2092     Cl  0.74962187  0.25488746  0.50662732    -0.87200
C2093       C  0.66922103  0.29482088  0.90599223     0.95100
C2094       C  0.66490508  0.32971805  0.54207534     0.94900
N2095       N  0.96818106  0.19619050  0.79466174    -0.07300
N2096       N  0.95681901  0.17184629  0.81459379    -0.59500
N2097       N  0.94251982  0.21335225  0.71679650    -0.07000
N2098       N  0.91961713  0.20546609  0.69206664    -0.61600
N2099       N  0.96618852  0.19121718  0.71714479    -0.06600
N2100       N  0.96003123  0.16797284  0.69271452    -0.59400
N2101       N  0.94853823  0.22211605  0.79499718    -0.06300
N2102       N  0.92551267  0.21689114  0.81605872    -0.61900
C2103       C  0.92960358  0.18503458  0.82735787     0.94800
C2104       C  0.93077317  0.17726125  0.67762422     0.94600
N2105       N  0.45824022  0.31859101  0.71273270    -0.07500
N2106       N  0.45606468  0.33584341  0.68410698    -0.60000
N2107       N  0.93694862  0.29927553  0.79097463    -0.05600
N2108       N  0.91303717  0.30358860  0.81175860    -0.61300
N2109       N  0.95752833  0.32619589  0.79177576    -0.07600
N2110       N  0.94705508  0.34982160  0.81302345    -0.60300
N2111       N  0.93760884  0.29271088  0.71097587    -0.05300
N2112       N  0.92158919  0.28971465  0.68019635    -0.61400
Mn2113     Mn  0.94087385  0.25656864  0.75333163     1.18400
C2114       C  0.93422345  0.31671918  0.66330287     0.96900
C2115       C  0.91905105  0.33524580  0.82588195     0.97600
N2116       N  0.54515503  0.19118752  0.71671674    -0.07600
N2117       N  0.55294656  0.16675176  0.69529305    -0.63900
N2118       N  0.56761558  0.22360643  0.79683211    -0.06400
N2119       N  0.58712286  0.22332677  0.82565381    -0.64600
N2120       N  0.04647092  0.19892420  0.79618141    -0.07100
N2121       N  0.05162924  0.17920446  0.82283449    -0.64100
N2122       N  0.56779681  0.21631394  0.71728194    -0.06000
N2123       N  0.59142313  0.20923302  0.69662267    -0.64800
Mn2124     Mn  0.00652088  0.19349668  0.75615740     1.10700
C2125       C  0.58206556  0.17798896  0.68257184     0.98100
C2126       C  0.57488462  0.19565622  0.84189493     0.98200
N2127       N  0.53914594  0.32508149  0.79161014    -0.07100
N2128       N  0.54720990  0.34918635  0.81480045    -0.62500
N2129       N  0.55658680  0.29546549  0.71387496    -0.06400
N2130       N  0.57829587  0.30069145  0.69134597    -0.59200
N2131       N  0.53564420  0.32039682  0.71376511    -0.07700
N2132       N  0.54400574  0.34351823  0.69105724    -0.62000
N2133       N  0.56285807  0.30298560  0.79084292    -0.06700
N2134       N  0.58747991  0.31180651  0.81330085    -0.59200
Mn2135     Mn  0.49785027  0.32378164  0.75303186     1.20200
Mn2136     Mn  0.56448054  0.25995548  0.75469175     1.10100
Cl2137     Cl  0.50214277  0.25818978  0.75408901    -0.87200
C2138       C  0.57758848  0.34056075  0.82757582     0.95100
C2139       C  0.57103683  0.33096206  0.67739975     0.94900
N2140       N  0.78887898  0.43979787  0.79942396    -0.07300
N2141       N  0.79869183  0.41099475  0.81429330    -0.59500
N2142       N  0.77220058  0.01305624  0.83742671    -0.07000
N2143       N  0.76859789  0.03745606  0.85983152    -0.61600
N2144       N  0.74634654  0.99147686  0.83526787    -0.06600
N2145       N  0.72442989  0.00125618  0.85634223    -0.59400
N2146       N  0.81388048  0.46266365  0.80134009    -0.06300
N2147       N  0.84082232  0.44947020  0.81743445    -0.61900
C2148       C  0.83142451  0.41669771  0.82501985     0.94800
C2149       C  0.73907623  0.02969340  0.87192337     0.94600
N2150       N  0.77746823  0.08934065  0.76557990    -0.07500
N2151       N  0.78389804  0.12257965  0.76946726    -0.60000
N2152       N  0.82980778  0.52735561  0.75115935    -0.05600
N2153       N  0.86072101  0.52031064  0.74605686    -0.61300
N2154       N  0.81624009  0.54416533  0.72479438    -0.07600
N2155       N  0.83734603  0.54921577  0.70172059    -0.60300
N2156       N  0.79030486  0.07316536  0.79281831    -0.05300
N2157       N  0.80401162  0.09520208  0.81556485    -0.61400
Mn2158     Mn  0.80352701  0.01902378  0.79542186     1.18400
C2159       C  0.80110380  0.12587920  0.80062926     0.96900
C2160       C  0.86473055  0.53471956  0.71520946     0.97600
N2161       N  0.68767893  0.97600621  0.78191963    -0.07600
N2162       N  0.66617541  0.97238367  0.80489269    -0.63900
N2163       N  0.71487845  0.44591746  0.71318191    -0.06400
N2164       N  0.69997533  0.42580346  0.68939757    -0.64600
N2165       N  0.72263120  0.42872994  0.74145750    -0.07100
N2166       N  0.70953897  0.39712885  0.73761109    -0.64100
N2167       N  0.67503639  0.99247909  0.75495573    -0.06000
N2168       N  0.64421135  0.00059413  0.75934953    -0.64800
Mn2169     Mn  0.73599210  0.45743468  0.79034253     1.10700
C2170       C  0.63937451  0.98739858  0.79056938     0.98100
C2171       C  0.69556099  0.39569648  0.70472098     0.98200
N2172       N  0.75819536  0.52732604  0.67055951    -0.07100
N2173       N  0.77988511  0.51800755  0.64897090    -0.62500
N2174       N  0.69111891  0.05476947  0.70553275    -0.06400
N2175       N  0.66301474  0.06556533  0.69051071    -0.59200
N2176       N  0.71456757  0.07901880  0.70568123    -0.07700
N2177       N  0.70233807  0.10685794  0.69009692    -0.62000
N2178       N  0.73258703  0.50551512  0.66864506    -0.06700
N2179       N  0.73589848  0.48156447  0.64568574    -0.59200
Mn2180     Mn  0.76770717  0.06194902  0.71631207     1.20200
Mn2181     Mn  0.70206480  0.49957428  0.71150563     1.10100
Cl2182     Cl  0.75354438  0.00972852  0.75284946    -0.87200
C2183       C  0.76509209  0.48975936  0.63300648     0.95100
C2184       C  0.66952228  0.09839318  0.68125283     0.94900
C2185       C  0.83970278  0.16325119  0.83753377    -0.21500
C2186       C  0.83115312  0.14801440  0.80538621    -0.08100
C2187       C  0.85618224  0.14347622  0.78285440     0.12800
C2188       C  0.88923319  0.14921263  0.79476102    -0.21600
C2189       C  0.89803594  0.16539217  0.82628611    -0.08100
C2190       C  0.87259333  0.17481661  0.84674863     0.12800
C2191       C  0.87977935  0.19939435  0.87627007    -0.24900
H2192       H  0.82056113  0.16695640  0.85481975     0.14100
H2193       H  0.90815657  0.14480181  0.77736780     0.14100
C2194       C  0.84849971  0.13293978  0.74596710    -0.24900
H2195       H  0.85779689  0.20208696  0.89109526     0.04300
H2196       H  0.88667449  0.22511846  0.86654985     0.07500
H2197       H  0.90088866  0.19063629  0.89329256     0.07500
H2198       H  0.83032231  0.15032051  0.73338269     0.07500
H2199       H  0.83861905  0.10620739  0.74437359     0.07500
H2200       H  0.87082768  0.13486735  0.73144368     0.04300
C2201       C  0.66027632  0.35108843  0.67230080    -0.21500
C2202       C  0.66309318  0.37855103  0.69542667    -0.08100
C2203       C  0.63409249  0.39531103  0.70286392     0.12800
C2204       C  0.60321566  0.38356473  0.68819347    -0.21600
C2205       C  0.59983425  0.35293139  0.66972876    -0.08100
C2206       C  0.62884844  0.33769521  0.65969344     0.12800
C2207       C  0.62711043  0.30554636  0.63826328    -0.24900
H2208       H  0.68246543  0.33968552  0.66463354     0.14100
H2209       H  0.58129649  0.39591387  0.69526869     0.14100
C2210       C  0.63524039  0.42568347  0.72662423    -0.24900
H2211       H  0.64243447  0.30917277  0.61629329     0.04300
H2212       H  0.60131190  0.29854748  0.62801058     0.07500
H2213       H  0.63696451  0.28408907  0.65396973     0.07500
H2214       H  0.64761685  0.44769217  0.71452617     0.07500
H2215       H  0.64863011  0.41949279  0.75155590     0.07500
H2216       H  0.61009357  0.43352379  0.73189360     0.04300
C2217       C  0.78753579  0.43228439  0.63117818    -0.21500
C2218       C  0.78234807  0.46364191  0.61454505    -0.08100
C2219       C  0.78697895  0.46624277  0.57937181     0.12800
C2220       C  0.79463853  0.43682550  0.56126916    -0.21600
C2221       C  0.79720119  0.40478510  0.57741338    -0.08100
C2222       C  0.79450816  0.40275541  0.61303769     0.12800
C2223       C  0.79583712  0.36898350  0.63140589    -0.24900
H2224       H  0.78353313  0.43029112  0.65818780     0.14100
H2225       H  0.79636977  0.43832156  0.53376027     0.14100
C2226       C  0.78159501  0.49933438  0.56061037    -0.24900
H2227       H  0.79232989  0.37189055  0.65907885     0.04300
H2228       H  0.82025387  0.35772092  0.62921914     0.07500
H2229       H  0.77589591  0.35105509  0.62001178     0.07500
H2230       H  0.79883932  0.51971487  0.57234637     0.07500
H2231       H  0.75565079  0.50694391  0.56219831     0.07500
H2232       H  0.78609367  0.49700865  0.53310531     0.04300
C2233       C  0.70260285  0.07751350  0.94315766    -0.21500
C2234       C  0.70294412  0.11091723  0.92981773    -0.08100
C2235       C  0.71043427  0.11624839  0.89569168     0.12800
C2236       C  0.71969872  0.08841736  0.87640775    -0.21600
C2237       C  0.72179099  0.05548466  0.89061956    -0.08100
C2238       C  0.71168642  0.04962492  0.92369040     0.12800
C2239       C  0.71246576  0.01448459  0.93919492    -0.24900
H2240       H  0.69726917  0.07365152  0.96935258     0.14100
H2241       H  0.72726871  0.09271973  0.85094833     0.14100
C2242       C  0.71183818  0.15167396  0.88063712    -0.24900
H2243       H  0.70425199  0.01441027  0.96554169     0.04300
H2244       H  0.73810231  0.00524963  0.94040642     0.07500
H2245       H  0.69564512  0.99655938  0.92320691     0.07500
H2246       H  0.73099310  0.16799238  0.89558853     0.07500
H2247       H  0.68746030  0.16345915  0.88143790     0.07500
H2248       H  0.71811506  0.15122664  0.85358561     0.04300
C2249       C  0.58950923  0.34130846  0.88696950    -0.21500
C2250       C  0.59709486  0.35656493  0.85626880    -0.08100
C2251       C  0.63052927  0.36220641  0.85015262     0.12800
C2252       C  0.65377221  0.34132307  0.86677938    -0.21600
C2253       C  0.64392304  0.31731850  0.89101185    -0.08100
C2254       C  0.61211632  0.31948380  0.90356694     0.12800
C2255       C  0.60136966  0.29886636  0.93351158    -0.24900
H2256       H  0.56392346  0.34011960  0.89337405     0.14100
H2257       H  0.67906612  0.34246278  0.85951439     0.14100
C2258       C  0.64011701  0.38530073  0.82156789    -0.24900
H2259       H  0.57625438  0.30540665  0.94022875     0.04300
H2260       H  0.61890641  0.30414960  0.95642233     0.07500
H2261       H  0.60032629  0.27117122  0.92710267     0.07500
H2262       H  0.63311180  0.41173024  0.82696787     0.07500
H2263       H  0.62712356  0.37657262  0.79679420     0.07500
H2264       H  0.66725383  0.38574501  0.81896845     0.04300
C2265       C  0.89001145  0.20088863  0.60567397    -0.21500
C2266       C  0.85909805  0.19592692  0.61941762    -0.08100
C2267       C  0.85426373  0.16756063  0.64134601     0.12800
C2268       C  0.88194163  0.14934979  0.65327907    -0.21600
C2269       C  0.91365606  0.16193747  0.64706737    -0.08100
C2270       C  0.91706248  0.18230894  0.61815481     0.12800
C2271       C  0.95045490  0.18822349  0.60442670    -0.24900
H2272       H  0.89336377  0.21969606  0.58583271     0.14100
H2273       H  0.87950013  0.13016045  0.67290764     0.14100
C2274       C  0.82099383  0.15735983  0.65377600    -0.24900
H2275       H  0.94918887  0.20596061  0.58229547     0.04300
H2276       H  0.95938849  0.16345328  0.59576210     0.07500
H2277       H  0.96862779  0.19936103  0.62462975     0.07500
H2278       H  0.80344251  0.14877037  0.63189837     0.07500
H2279       H  0.81101331  0.17928888  0.66707793     0.07500
H2280       H  0.82273641  0.13563733  0.67194428     0.04300
C2281       C  0.85515251  0.10057012  0.92421809    -0.21500
C2282       C  0.88937134  0.10480279  0.93213723    -0.08100
C2283       C  0.90384145  0.13684469  0.94249957     0.12800
C2284       C  0.88312336  0.16275247  0.95027337    -0.21600
C2285       C  0.84862237  0.15709297  0.94680846    -0.08100
C2286       C  0.83433897  0.12682486  0.93104615     0.12800
C2287       C  0.79745154  0.12144615  0.92263549    -0.24900
H2288       H  0.84459233  0.07584271  0.91559137     0.14100
H2289       H  0.89390676  0.18635831  0.96134321     0.14100
C2290       C  0.94297645  0.14083548  0.45115479    -0.24900
H2291       H  0.78797990  0.14306765  0.90694351     0.04300
H2292       H  0.78433422  0.11939363  0.94632043     0.07500
H2293       H  0.79140659  0.09749587  0.90772153     0.07500
H2294       H  0.95402274  0.13727213  0.42642106     0.07500
H2295       H  0.95123745  0.12550929  0.96845655     0.07500
H2296       H  0.94996763  0.16714907  0.46060684     0.04300
C2297       C  0.66167388  0.38106191  0.57684901    -0.21500
C2298       C  0.64524424  0.35197456  0.56151960    -0.08100
C2299       C  0.61022642  0.34820141  0.56021232     0.12800
C2300       C  0.59188145  0.37601371  0.07033224    -0.21600
C2301       C  0.60924129  0.40741397  0.57781468    -0.08100
C2302       C  0.64385640  0.40928786  0.58471741     0.12800
C2303       C  0.66192600  0.44158576  0.59832154    -0.24900
H2304       H  0.68857091  0.38294708  0.57956926     0.14100
H2305       H  0.56500325  0.37413759  0.06633678     0.14100
C2306       C  0.59206423  0.31616592  0.04797286    -0.24900
H2307       H  0.68908999  0.43829898  0.60250249     0.04300
H2308       H  0.65271508  0.44853632  0.62324539     0.07500
H2309       H  0.65779775  0.46286180  0.58000194     0.07500
H2310       H  0.60071428  0.29404618  0.06343266     0.07500
H2311       H  0.59626304  0.31199266  0.02065671     0.07500
H2312       H  0.56487537  0.31728324  0.04973120     0.04300
C2313       C  0.60446635  0.00138717  0.87027427    -0.21500
C2314       C  0.58540531  0.47413157  0.87451054    -0.08100
C2315       C  0.57476556  0.45692638  0.84344908     0.12800
C2316       C  0.58884310  0.46694075  0.81339369    -0.21600
C2317       C  0.61122981  0.99162804  0.81043386    -0.08100
C2318       C  0.61716581  0.01214754  0.83997663     0.12800
C2319       C  0.63897267  0.04424176  0.84066140    -0.24900
H2320       H  0.61030153  0.01670620  0.89326411     0.14100
H2321       H  0.58440209  0.45123602  0.79050432     0.14100
C2322       C  0.54903270  0.42792189  0.84185517    -0.24900
H2323       H  0.62489020  0.06585862  0.84930536     0.04300
H2324       H  0.66095020  0.04107170  0.85890533     0.07500
H2325       H  0.64735963  0.05066466  0.81508247     0.07500
H2326       H  0.52460674  0.43753655  0.84723332     0.07500
H2327       H  0.55621335  0.40824544  0.86102132     0.07500
H2328       H  0.54590514  0.41596469  0.81601208     0.04300
C2329       C  0.92605618  0.06326544  0.65525568    -0.21500
C2330       C  0.91389148  0.04236867  0.62739948    -0.08100
C2331       C  0.88992319  0.51374059  0.63323753     0.12800
C2332       C  0.88139485  0.50672944  0.66634313    -0.21600
C2333       C  0.89097459  0.52936935  0.69336268    -0.08100
C2334       C  0.91586169  0.05718685  0.68802451     0.12800
C2335       C  0.92859961  0.08019608  0.71749646    -0.24900
H2336       H  0.94370858  0.08423586  0.65134398     0.14100
H2337       H  0.86350827  0.48589186  0.67031801     0.14100
C2338       C  0.87647792  0.48983737  0.60470447    -0.24900
H2339       H  0.94637775  0.10039733  0.70946964     0.04300
H2340       H  0.94151125  0.06477511  0.73783629     0.07500
H2341       H  0.90777437  0.09272245  0.72831233     0.07500
H2342       H  0.89732528  0.47884680  0.59235583     0.07500
H2343       H  0.86071024  0.50394696  0.58549405     0.07500
H2344       H  0.86095965  0.46830336  0.61413234     0.04300
C2345       C  0.96345019  0.34752125  0.58414325    -0.21500
C2346       C  0.94028780  0.37270570  0.57778870    -0.08100
C2347       C  0.90902375  0.36922846  0.59136043     0.12800
C2348       C  0.90393140  0.34387835  0.61576883    -0.21600
C2349       C  0.92961868  0.32277710  0.62663900    -0.08100
C2350       C  0.95804335  0.32192485  0.60813618     0.12800
C2351       C  0.47243406  0.29384465  0.61149801    -0.24900
H2352       H  0.98689694  0.34957966  0.57259372     0.14100
H2353       H  0.88202431  0.34401702  0.62995493     0.14100
C2354       C  0.88272156  0.39468147  0.58361991    -0.24900
H2355       H  0.49065068  0.29400212  0.59177908     0.04300
H2356       H  0.97282529  0.26994134  0.61316165     0.07500
H2357       H  0.48653089  0.29535419  0.63705147     0.07500
H2358       H  0.87435894  0.39390896  0.55589772     0.07500
H2359       H  0.89278253  0.42059316  0.59094529     0.07500
H2360       H  0.86099082  0.38929436  0.59839266     0.04300
C2361       C  0.07219728  0.19091758  0.90013324    -0.21500
C2362       C  0.58698696  0.18231798  0.87488557    -0.08100
C2363       C  0.60036826  0.14972071  0.87396895     0.12800
C2364       C  0.58943387  0.12449856  0.89594993    -0.21600
C2365       C  0.56613411  0.13178398  0.91904053    -0.08100
C2366       C  0.05967909  0.16610067  0.92193834     0.12800
C2367       C  0.03639169  0.17595648  0.94795901    -0.24900
H2368       H  0.06277916  0.21643323  0.90033007     0.14100
H2369       H  0.59715167  0.09844191  0.89326061     0.14100
C2370       C  0.62145820  0.13961377  0.84600040    -0.24900
H2371       H  0.03253667  0.20390487  0.94780134     0.04300
H2372       H  0.04675828  0.16884005  0.97397244     0.07500
H2373       H  0.01195198  0.16233962  0.94224822     0.07500
H2374       H  0.64368375  0.12683625  0.85728834     0.07500
H2375       H  0.62994448  0.16216424  0.83139087     0.07500
H2376       H  0.60696622  0.12157268  0.82800429     0.04300
C2377       C  0.85343960  0.84636658  0.39475555     0.85300
C2378       C  0.83334811  0.86898560  0.36920587    -0.55000
C2379       C  0.85122281  0.89082743  0.34952363     0.08200
C2380       C  0.89000294  0.88745645  0.35753895     0.19100
C2381       C  0.87664451  0.82748940  0.37158557    -0.55700
C2382       C  0.89634576  0.84817103  0.35169038     0.08300
C2383       C  0.87701021  0.87194182  0.41560775    -0.55200
C2384       C  0.89638704  0.89378170  0.39743099     0.08900
H2385       H  0.80641778  0.86822361  0.36736544     0.13400
H2386       H  0.90500996  0.90499524  0.34211891    -0.00900
H2387       H  0.87714326  0.79977703  0.37087927     0.13700
H2388       H  0.87768615  0.87298679  0.44336979     0.13500
C2389       C  0.60107141  0.61534274  0.11019496     0.85300
C2390       C  0.62290748  0.64078592  0.09100643    -0.55000
C2391       C  0.64420536  0.66226102  0.11098123     0.08200
C2392       C  0.64016120  0.65643799  0.15079098     0.19100
C2393       C  0.62567766  0.59689663  0.13477251    -0.55700
C2394       C  0.64673331  0.61715234  0.15634552     0.08300
C2395       C  0.58223482  0.63770552  0.13382128    -0.55200
C2396       C  0.60132130  0.65941609  0.15589931     0.08900
H2397       H  0.62242531  0.64084943  0.06323005     0.13400
H2398       H  0.65667073  0.67352861  0.16796421    -0.00900
H2399       H  0.62632179  0.56916214  0.13478113     0.13700
H2400       H  0.55538842  0.63558245  0.13372515     0.13500
N2401       N  0.55743773  0.98352726  0.45351052    -0.07300
N2402       N  0.58244858  0.97468101  0.43623013    -0.59500
N2403       N  0.02371201  0.55626163  0.44154517    -0.07000
N2404       N  0.02501122  0.58326851  0.42136512    -0.61600
N2405       N  0.55195421  0.55703085  0.46313451    -0.06600
N2406       N  0.57046646  0.58515368  0.46041084    -0.59400
N2407       N  0.52971009  0.97983237  0.43334390    -0.06300
N2408       N  0.53533178  0.96763074  0.40335565    -0.61900
C2409       C  0.56818837  0.96493053  0.40487168     0.94800
C2410       C  0.55474937  0.60143487  0.43421385     0.94600
N2411       N  0.92691678  0.53461453  0.46699627    -0.07500
N2412       N  0.90417226  0.55300126  0.96650147    -0.60000
N2413       N  0.95418721  0.96197616  0.43203851    -0.05600
N2414       N  0.94360077  0.94156949  0.40547362    -0.61300
N2415       N  0.93635443  0.95537761  0.45799412    -0.07600
N2416       N  0.91386127  0.93044962  0.44984067    -0.60300
N2417       N  0.94646153  0.54118893  0.44249624    -0.05300
N2418       N  0.93577551  0.56671660  0.42333678    -0.61400
Mn2419     Mn  0.98845362  0.51007432  0.43662062     1.18400
C2420       C  0.90785200  0.57469901  0.43751650     0.96900
C2421       C  0.91835954  0.92152882  0.41702087     0.97600
N2422       N  0.56444152  0.55418828  0.04613733    -0.07600
N2423       N  0.58633269  0.57965520  0.05497697    -0.63900
N2424       N  0.55159980  0.96918476  0.05846227    -0.06400
N2425       N  0.56283458  0.94505943  0.07908487    -0.64600
N2426       N  0.57175897  0.97682837  0.53602405    -0.07100
N2427       N  0.59777570  0.95778983  0.54041855    -0.64100
N2428       N  0.54485029  0.54836175  0.07081173    -0.06000
N2429       N  0.55339175  0.56960157  0.09701246    -0.64800
Mn2430     Mn  0.56328882  0.51665387  0.49828222     1.10700
C2431       C  0.57901453  0.58976760  0.08669928     0.98100
C2432       C  0.59130673  0.93738138  0.06599501     0.98200
N2433       N  0.95210901  0.95216572  0.03943582    -0.07100
N2434       N  0.93645813  0.92214487  0.04157533    -0.62500
N2435       N  0.96909961  0.52887895  0.07049828    -0.06400
N2436       N  0.96260267  0.54118460  0.10020406    -0.59200
N2437       N  0.94185645  0.52499341  0.04978162    -0.07700
N2438       N  0.91623888  0.53412214  0.06597255    -0.62000
N2439       N  0.97835091  0.95481807  0.06170152    -0.06700
N2440       N  0.47740690  0.92504028  0.07652578    -0.59200
Mn2441     Mn  0.93833343  0.99310447  0.00470284     1.20200
Mn2442     Mn  0.50975321  0.00007331  0.06417444     1.10100
Cl2443     Cl  0.99878903  0.50547704  0.50109800    -0.87200
C2444       C  0.95492281  0.90618309  0.06632119     0.95100
C2445       C  0.92964049  0.54397536  0.09750495     0.94900
N2446       N  0.79844372  0.69565914  0.50457657    -0.07300
N2447       N  0.80568548  0.66824352  0.48767312    -0.59500
N2448       N  0.81271925  0.74671271  0.06664071    -0.07000
N2449       N  0.84069889  0.74310012  0.08579392    -0.61600
N2450       N  0.79110397  0.72182952  0.07379099    -0.06600
N2451       N  0.80429571  0.70196599  0.09774537    -0.59400
N2452       N  0.81814603  0.72187578  0.49705060    -0.06300
N2453       N  0.83911845  0.71260115  0.47512923    -0.61900
C2454       C  0.83064877  0.67925197  0.46920271     0.94800
C2455       C  0.83527037  0.71490644  0.10471203     0.94600
N2456       N  0.77720494  0.83773950  0.02020645    -0.07500
N2457       N  0.77347962  0.86820249  0.03317870    -0.60000
N2458       N  0.81551085  0.79665039  0.46288084    -0.05600
N2459       N  0.84203057  0.80468263  0.44571110    -0.61300
N2460       N  0.78918659  0.81087599  0.44812756    -0.07600
N2461       N  0.79757702  0.82881566  0.42093842    -0.60300
N2462       N  0.80264798  0.82296558  0.03583697    -0.05300
N2463       N  0.81684839  0.84331702  0.06053452    -0.61400
Mn2464     Mn  0.81385441  0.77177879  0.01568740     1.18400
C2465       C  0.79824811  0.87161587  0.05819344     0.96900
C2466       C  0.83077158  0.82457741  0.41885161     0.97600
N2467       N  0.71173811  0.69927659  0.06545536    -0.07600
N2468       N  0.70204055  0.68054924  0.09173230    -0.63900
N2469       N  0.69965645  0.68799235  0.47912198    -0.06400
N2470       N  0.68645698  0.66812612  0.45359248    -0.64600
N2471       N  0.72454527  0.67303273  0.49556696    -0.07100
N2472       N  0.72886936  0.64284794  0.48226415    -0.64100
N2473       N  0.68609830  0.71426335  0.05026777    -0.06000
N2474       N  0.65896599  0.70622840  0.06612784    -0.64800
Mn2475     Mn  0.75712111  0.69693306  0.03498666     1.10700
C2476       C  0.66889296  0.68584467  0.09293693     0.98100
C2477       C  0.70498292  0.63983685  0.45631094     0.98200
N2478       N  0.71014041  0.78819482  0.44014771    -0.07900
N2479       N  0.69661958  0.80822297  0.41657550    -0.62500
N2480       N  0.68329573  0.78841218  0.01789402    -0.06400
N2481       N  0.66105616  0.79685555  0.03867501    -0.59200
N2482       N  0.70283871  0.81499972  0.01126311    -0.07700
N2483       N  0.69407883  0.84210273  0.02769429    -0.62000
N2484       N  0.68851494  0.76349240  0.44764187    -0.06700
N2485       N  0.66003923  0.76759032  0.42947883    -0.59200
Mn2486     Mn  0.74395485  0.81362408  0.47878243     1.20200
Mn2487     Mn  0.68812855  0.73911062  0.49848661     1.10100
Cl2488     Cl  0.75170326  0.75485739  0.00702451    -0.87200
C2489       C  0.66531541  0.79578268  0.41069206     0.95100
C2490       C  0.66815145  0.83033701  0.04461557     0.94900
N2491       N  0.97041457  0.69359534  0.29422142    -0.07300
N2492       N  0.95991218  0.66911933  0.31447007    -0.59500
N2493       N  0.94432153  0.71072517  0.21648427    -0.07000
N2494       N  0.92162434  0.70265667  0.19160899    -0.61600
N2495       N  0.96832234  0.68899642  0.21676612    -0.06600
N2496       N  0.96264097  0.66586425  0.19216813    -0.59400
N2497       N  0.95028974  0.71910204  0.29466997    -0.06300
N2498       N  0.92769281  0.71347213  0.31609955    -0.61900
C2499       C  0.93260544  0.68175702  0.32748854     0.94800
C2500       C  0.93327937  0.67476855  0.17704056     0.94600
N2501       N  0.45885802  0.81862510  0.21095405    -0.07500
N2502       N  0.45850121  0.83356217  0.18103388    -0.60000
N2503       N  0.93744325  0.79642908  0.29114147    -0.05600
N2504       N  0.91336032  0.80072117  0.31179808    -0.61300
N2505       N  0.95795887  0.82340568  0.29217368    -0.07600
N2506       N  0.94732795  0.84699077  0.31333627    -0.60300
N2507       N  0.93930083  0.79000203  0.21076847    -0.05300
N2508       N  0.92527677  0.78610225  0.17915357    -0.61400
Mn2509     Mn  0.94213977  0.75378915  0.25318473     1.18400
C2510       C  0.93893391  0.81275376  0.16252350     0.96900
C2511       C  0.91926494  0.83243056  0.32600788     0.97600
N2512       N  0.54637905  0.69280243  0.21688716    -0.07600
N2513       N  0.55434100  0.66835090  0.19557880    -0.63900
N2514       N  0.56810378  0.72505825  0.29697965    -0.06400
N2515       N  0.58857488  0.72373472  0.32503306    -0.64600
N2516       N  0.04817956  0.69727119  0.29582233    -0.07100
N2517       N  0.05288163  0.67775025  0.32267441    -0.64100
N2518       N  0.56900372  0.71798448  0.21762515    -0.06000
N2519       N  0.59279278  0.71083561  0.19711704    -0.64800
Mn2520     Mn  0.00852727  0.69173036  0.25573719     1.10700
C2521       C  0.58354717  0.67951153  0.18303645     0.98100
C2522       C  0.57720943  0.69516786  0.34045608     0.98200
N2523       N  0.53832398  0.82683439  0.29167029    -0.07100
N2524       N  0.54474077  0.85016416  0.31598590    -0.62500
N2525       N  0.55736768  0.79718918  0.21434207    -0.06400
N2526       N  0.57922900  0.80224184  0.19196793    -0.59200
N2527       N  0.53629953  0.82201510  0.21379756    -0.07700
N2528       N  0.54482237  0.84500209  0.19099420    -0.62000
N2529       N  0.56252445  0.80519533  0.29149519    -0.06700
N2530       N  0.58595294  0.81379915  0.31546387    -0.59200
Mn2531     Mn  0.49762758  0.82498199  0.25224466     1.20200
Mn2532     Mn  0.56507370  0.76180372  0.25517648     1.10100
Cl2533     Cl  0.50263896  0.75942812  0.25392956    -0.87200
C2534       C  0.57476119  0.84183699  0.33008451     0.95100
C2535       C  0.57196260  0.83231047  0.17763231     0.94900
N2536       N  0.79025052  0.93913746  0.29948338    -0.07300
N2537       N  0.79962174  0.91010927  0.31418676    -0.59500
N2538       N  0.77199252  0.51281765  0.33791922    -0.07000
N2539       N  0.76893192  0.53724928  0.36045427    -0.61600
N2540       N  0.74596052  0.49150941  0.33599159    -0.06600
N2541       N  0.72443194  0.50148126  0.35742101    -0.59400
N2542       N  0.81557601  0.96163440  0.30134039    -0.06300
N2543       N  0.84231184  0.94790068  0.31732380    -0.61900
C2544       C  0.83240969  0.91521933  0.32483552     0.94800
C2545       C  0.73954692  0.52975679  0.37295490     0.94600
N2546       N  0.77923293  0.58825396  0.26509451    -0.07500
N2547       N  0.78700854  0.62128979  0.26850417    -0.60000
N2548       N  0.83215317  0.02699169  0.25121418    -0.05600
N2549       N  0.86336270  0.02093303  0.24635078    -0.61300
N2550       N  0.81853580  0.04413092  0.22509987    -0.07600
N2551       N  0.83987413  0.05032239  0.20245179    -0.60300
N2552       N  0.79117463  0.57201811  0.29267829    -0.05300
N2553       N  0.80549212  0.59385731  0.31523461    -0.61400
Mn2554     Mn  0.80324259  0.51773468  0.29585725     1.18400
C2555       C  0.80394209  0.62436838  0.29980709     0.96900
C2556       C  0.86748927  0.03625661  0.21594396     0.97600
N2557       N  0.68742661  0.47681187  0.28255478    -0.07600
N2558       N  0.66616583  0.47370942  0.30572053    -0.63900
N2559       N  0.71657725  0.94599302  0.21382831    -0.06400
N2560       N  0.70152310  0.92619446  0.18989774    -0.64600
N2561       N  0.72388590  0.92863968  0.24206335    -0.07100
N2562       N  0.71015544  0.89731165  0.23812033    -0.64100
N2563       N  0.67490426  0.49352928  0.25571068    -0.06000
N2564       N  0.64435783  0.50233983  0.26033283    -0.64800
Mn2565     Mn  0.73760797  0.95722648  0.29078427     1.10700
C2566       C  0.63968468  0.48936349  0.29164822     0.98100
C2567       C  0.69641329  0.89620479  0.20513631     0.98200
N2568       N  0.76060011  0.02644102  0.17151200    -0.07100
N2569       N  0.78314075  0.01579368  0.15152851    -0.62500
N2570       N  0.69193079  0.55513938  0.20610734    -0.06400
N2571       N  0.66386856  0.56646584  0.19157024    -0.59200
N2572       N  0.71582857  0.57886554  0.20571236    -0.07700
N2573       N  0.70393310  0.60686634  0.19011621    -0.62000
N2574       N  0.73489411  0.00472505  0.16968265    -0.06700
N2575       N  0.73908142  0.97947788  0.14839817    -0.59200
Mn2576     Mn  0.76856756  0.56048084  0.21622233     1.20200
Mn2577     Mn  0.70396724  0.99957727  0.21223004     1.10100
Cl2578     Cl  0.75329355  0.50902637  0.25322684    -0.87200
C2579       C  0.76888122  0.98674272  0.13674830     0.95100
C2580       C  0.67084591  0.59906270  0.18195430     0.94900
C2581       C  0.84296875  0.66045571  0.33711680    -0.21500
C2582       C  0.83460434  0.64539452  0.30487334    -0.08100
C2583       C  0.85989472  0.63975821  0.28290159     0.12800
C2584       C  0.89288184  0.64489313  0.29536218    -0.21600
C2585       C  0.90145595  0.66153085  0.32673431    -0.08100
C2586       C  0.87590564  0.67128600  0.34687600     0.12800
C2587       C  0.88296612  0.69592899  0.37637507    -0.24900
H2588       H  0.82364329  0.66467633  0.35401780     0.14100
H2589       H  0.91198981  0.63988949  0.27836555     0.14100
C2590       C  0.85257293  0.62868095  0.24606124    -0.24900
H2591       H  0.86102273  0.69835772  0.39129975     0.04300
H2592       H  0.88955897  0.72171942  0.36663174     0.07500
H2593       H  0.90423913  0.68746165  0.39332801     0.07500
H2594       H  0.83513949  0.64636188  0.23272206     0.07500
H2595       H  0.84190412  0.60221909  0.24476927     0.07500
H2596       H  0.87521303  0.62953799  0.23192957     0.04300
C2597       C  0.66115366  0.85166298  0.17290689    -0.21500
C2598       C  0.66382798  0.87960305  0.19537157    -0.08100
C2599       C  0.63486010  0.89705099  0.20164870     0.12800
C2600       C  0.60404791  0.88521080  0.18684212    -0.21600
C2601       C  0.60072037  0.85403154  0.16935619    -0.08100
C2602       C  0.62980708  0.83834112  0.16008797     0.12800
C2603       C  0.62822738  0.80566726  0.13951316    -0.24900
H2604       H  0.68337670  0.83977536  0.16600586     0.14100
H2605       H  0.58207910  0.89790420  0.19324108     0.14100
C2606       C  0.63593220  0.92801433  0.22459122    -0.24900
H2607       H  0.64378208  0.80870537  0.11764284     0.04300
H2608       H  0.60249525  0.79848493  0.12921029     0.07500
H2609       H  0.63793218  0.78459322  0.15587378     0.07500
H2610       H  0.64899306  0.94954078  0.21238450     0.07500
H2611       H  0.64857595  0.92207943  0.24997454     0.07500
H2612       H  0.61075943  0.93647214  0.22894660     0.04300
C2613       C  0.79039551  0.92854078  0.13490484    -0.21500
C2614       C  0.78626679  0.96036582  0.11878116    -0.08100
C2615       C  0.79216669  0.96361640  0.08400216     0.12800
C2616       C  0.79981524  0.93447408  0.06555515    -0.21600
C2617       C  0.80129418  0.90206125  0.08099547    -0.08100
C2618       C  0.79765270  0.89927966  0.11641217     0.12800
C2619       C  0.79843567  0.86507327  0.13401250    -0.24900
H2620       H  0.78549376  0.92605458  0.16167432     0.14100
H2621       H  0.80228193  0.93651611  0.03821688     0.14100
C2622       C  0.78782473  0.99717804  0.06583162    -0.24900
H2623       H  0.79441452  0.86738980  0.16162275     0.04300
H2624       H  0.82288740  0.85378013  0.13202271     0.07500
H2625       H  0.77861383  0.84746632  0.12184789     0.07500
H2626       H  0.80496939  0.01710397  0.07854263     0.07500
H2627       H  0.76188258  0.00508710  0.06672331     0.07500
H2628       H  0.79318071  0.99538739  0.03853605     0.04300
C2629       C  0.70454577  0.57762037  0.44528665    -0.21500
C2630       C  0.70404447  0.61097581  0.43181265    -0.08100
C2631       C  0.71111055  0.61631455  0.39754429     0.12800
C2632       C  0.72014101  0.58849226  0.37804304    -0.21600
C2633       C  0.72288911  0.55562228  0.39228961    -0.08100
C2634       C  0.71386116  0.54984382  0.42578377     0.12800
C2635       C  0.71618050  0.51497505  0.44172542    -0.24900
H2636       H  0.69976898  0.57376126  0.47162898     0.14100
H2637       H  0.72706785  0.59278019  0.35233754     0.14100
C2638       C  0.71246995  0.65177122  0.38256917    -0.24900
H2639       H  0.70883519  0.51496175  0.46841059     0.04300
H2640       H  0.74209533  0.50659708  0.44221866     0.07500
H2641       H  0.69947732  0.49635031  0.42648436     0.07500
H2642       H  0.73185704  0.66795904  0.39734588     0.07500
H2643       H  0.68820626  0.66368885  0.38375031     0.07500
H2644       H  0.71842412  0.65136198  0.35540807     0.04300
C2645       C  0.58266975  0.83692390  0.38986046    -0.21500
C2646       C  0.59131158  0.85591607  0.36153802    -0.08100
C2647       C  0.62483607  0.86517521  0.35900001     0.12800
C2648       C  0.64865747  0.84502539  0.37562775    -0.21600
C2649       C  0.63913018  0.81808372  0.39689038    -0.08100
C2650       C  0.60612056  0.81622957  0.40687692     0.12800
C2651       C  0.59503024  0.79257856  0.43444302    -0.24900
H2652       H  0.55660696  0.83254607  0.39376305     0.14100
H2653       H  0.67443619  0.84935154  0.37064857     0.14100
C2654       C  0.63492277  0.89282624  0.33485727    -0.24900
H2655       H  0.56873984  0.79609734  0.43936932     0.04300
H2656       H  0.61046101  0.79791010  0.45880318     0.07500
H2657       H  0.59703513  0.76555039  0.42657778     0.07500
H2658       H  0.62680197  0.91766071  0.34398263     0.07500
H2659       H  0.62345692  0.88760758  0.30853526     0.07500
H2660       H  0.66227604  0.89504802  0.33385966     0.04300
C2661       C  0.89349482  0.69862603  0.10403499    -0.21500
C2662       C  0.86230129  0.69281370  0.11694262    -0.08100
C2663       C  0.85747836  0.66414702  0.13848046     0.12800
C2664       C  0.88530049  0.64653174  0.15107698    -0.21600
C2665       C  0.91696953  0.65998066  0.14586206    -0.08100
C2666       C  0.92080833  0.68093809  0.11740126     0.12800
C2667       C  0.95472579  0.68899469  0.10558712    -0.24900
H2668       H  0.89696251  0.71786018  0.08465390     0.14100
H2669       H  0.88274483  0.62735934  0.17072329     0.14100
C2670       C  0.82406922  0.65320136  0.15011879    -0.24900
H2671       H  0.95360194  0.70678113  0.08349624     0.04300
H2672       H  0.96559488  0.66497781  0.09752556     0.07500
H2673       H  0.97127759  0.70107524  0.12665233     0.07500
H2674       H  0.80710442  0.64446758  0.12781688     0.07500
H2675       H  0.81339489  0.67481696  0.16326259     0.07500
H2676       H  0.82583238  0.63147662  0.16830171     0.04300
C2677       C  0.85550135  0.60126557  0.42349984    -0.21500
C2678       C  0.88988958  0.60532943  0.43013538    -0.08100
C2679       C  0.90457636  0.63700219  0.44135469     0.12800
C2680       C  0.88418240  0.66221389  0.45178589    -0.21600
C2681       C  0.84967850  0.65639333  0.44970100    -0.08100
C2682       C  0.83496363  0.62689025  0.43278930     0.12800
C2683       C  0.79795601  0.62174023  0.42533186    -0.24900
H2684       H  0.84468419  0.57688664  0.41412649     0.14100
H2685       H  0.89529097  0.68543338  0.46340420     0.14100
C2686       C  0.94411085  0.64024922  0.94964621    -0.24900
H2687       H  0.78813321  0.64401240  0.41090098     0.04300
H2688       H  0.78557502  0.61861500  0.44938359     0.07500
H2689       H  0.79145810  0.59845085  0.40949694     0.07500
H2690       H  0.95524323  0.63683301  0.92492593     0.07500
H2691       H  0.95351808  0.62537339  0.46331485     0.07500
H2692       H  0.95122958  0.66645903  0.95930417     0.04300
C2693       C  0.66336988  0.88311849  0.07666036    -0.21500
C2694       C  0.64780252  0.85284010  0.06299043    -0.08100
C2695       C  0.61281489  0.84812945  0.06164146     0.12800
C2696       C  0.59469937  0.87864946  0.57270011    -0.21600
C2697       C  0.61008869  0.90795928  0.07619461    -0.08100
C2698       C  0.64470858  0.91124993  0.08267700     0.12800
C2699       C  0.66190178  0.94485124  0.09379909    -0.24900
H2700       H  0.69021923  0.88591122  0.07923705     0.14100
H2701       H  0.56779642  0.87687116  0.56943416     0.14100
C2702       C  0.59377659  0.81880062  0.55041116    -0.24900
H2703       H  0.68919932  0.94260834  0.09808667     0.04300
H2704       H  0.65260792  0.95335831  0.11818218     0.07500
H2705       H  0.65705982  0.96460152  0.07393879     0.07500
H2706       H  0.60209733  0.79643117  0.56563843     0.07500
H2707       H  0.59772369  0.81468872  0.52301226     0.07500
H2708       H  0.56665035  0.82038922  0.55233377     0.04300
C2709       C  0.60767475  0.50038885  0.37249816    -0.21500
C2710       C  0.58426906  0.97210207  0.37338461    -0.08100
C2711       C  0.57219570  0.95748371  0.34134096     0.12800
C2712       C  0.58736671  0.96761232  0.31184456    -0.21600
C2713       C  0.61197391  0.49386916  0.31178081    -0.08100
C2714       C  0.61933665  0.51267193  0.34225942     0.12800
C2715       C  0.64247095  0.54380912  0.34399230    -0.24900
H2716       H  0.61459030  0.51442125  0.39609061     0.14100
H2717       H  0.58166666  0.95351144  0.28808002     0.14100
C2718       C  0.54439259  0.93053301  0.33822602    -0.24900
H2719       H  0.62999773  0.56553146  0.35468095     0.04300
H2720       H  0.66472865  0.53839496  0.36100525     0.07500
H2721       H  0.65022327  0.55139755  0.31845661     0.07500
H2722       H  0.52077099  0.94180266  0.34393620     0.07500
H2723       H  0.54990988  0.90950976  0.35643401     0.07500
H2724       H  0.54065509  0.91970691  0.31188685     0.04300
C2725       C  0.92552351  0.55840887  0.15764310    -0.21500
C2726       C  0.91279387  0.53911779  0.12885595    -0.08100
C2727       C  0.89396178  0.01557771  0.13434199     0.12800
C2728       C  0.88532285  0.00867631  0.16740354    -0.21600
C2729       C  0.89400692  0.03178752  0.19418301    -0.08100
C2730       C  0.91593569  0.55049542  0.19024432     0.12800
C2731       C  0.92896834  0.57213585  0.22067438    -0.24900
H2732       H  0.94319006  0.57957828  0.15457652     0.14100
H2733       H  0.86822258  0.98720548  0.17155664     0.14100
C2734       C  0.88217148  0.99037669  0.10627005    -0.24900
H2735       H  0.94599691  0.59335311  0.21327530     0.04300
H2736       H  0.94273698  0.55595404  0.23972635     0.07500
H2737       H  0.90823216  0.58336694  0.23292629     0.07500
H2738       H  0.90379062  0.97973587  0.09490819     0.07500
H2739       H  0.86622942  0.00319306  0.08621609     0.07500
H2740       H  0.86717873  0.96859190  0.11596080     0.04300
C2741       C  0.96966636  0.84895287  0.08664866    -0.21500
C2742       C  0.94533443  0.87305718  0.08078021    -0.08100
C2743       C  0.91386139  0.86728073  0.09342608     0.12800
C2744       C  0.90886695  0.83951149  0.11516412    -0.21600
C2745       C  0.93533185  0.81936508  0.12593889    -0.08100
C2746       C  0.96481608  0.82171766  0.10897938     0.12800
C2747       C  0.48202499  0.79388894  0.11118745    -0.24900
H2748       H  0.99342880  0.85301304  0.07602471     0.14100
H2749       H  0.88631785  0.83732502  0.12830722     0.14100
C2750       C  0.88713827  0.89272226  0.08803591    -0.24900
H2751       H  0.50190579  0.79685972  0.09334493     0.04300
H2752       H  0.98329758  0.77098982  0.11207421     0.07500
H2753       H  0.49388266  0.79559011  0.13774876     0.07500
H2754       H  0.87892325  0.89448485  0.06039096     0.07500
H2755       H  0.89673268  0.91810892  0.09790871     0.07500
H2756       H  0.86531012  0.88533726  0.10205304     0.04300
C2757       C  0.07312090  0.68925717  0.40062745    -0.21500
C2758       C  0.58964798  0.68147580  0.37316203    -0.08100
C2759       C  0.60363525  0.64915202  0.37213328     0.12800
C2760       C  0.59379772  0.62390916  0.39471138    -0.21600
C2761       C  0.57020905  0.63060072  0.41767016    -0.08100
C2762       C  0.06062646  0.66420167  0.42222687     0.12800
C2763       C  0.03771016  0.67383408  0.44869485    -0.24900
H2764       H  0.06408600  0.71493052  0.40137651     0.14100
H2765       H  0.60216869  0.59814026  0.39232903     0.14100
C2766       C  0.62428293  0.63920272  0.34370954    -0.24900
H2767       H  0.03396629  0.70179856  0.44892265     0.04300
H2768       H  0.04835258  0.66638974  0.47450581     0.07500
H2769       H  0.01318170  0.66034844  0.44315167     0.07500
H2770       H  0.64725169  0.62751557  0.35460461     0.07500
H2771       H  0.63148426  0.66162977  0.32822326     0.07500
H2772       H  0.61002202  0.62017846  0.32659967     0.04300
C2773       C  0.85433640  0.84801808  0.89517076     0.85300
C2774       C  0.83401166  0.87049581  0.86954537    -0.55000
C2775       C  0.85167477  0.89260144  0.84985253     0.08200
C2776       C  0.89057202  0.88956574  0.85803367     0.19100
C2777       C  0.87782856  0.82947062  0.87207234    -0.55700
C2778       C  0.89742581  0.85028046  0.85219671     0.08300
C2779       C  0.87754268  0.87382015  0.91608790    -0.55200
C2780       C  0.89670579  0.89594578  0.89801884     0.08900
H2781       H  0.80708348  0.86943925  0.86768906     0.13400
H2782       H  0.90547852  0.90729395  0.84270499    -0.00900
H2783       H  0.87861146  0.80178488  0.87143512     0.13700
H2784       H  0.87809638  0.87482413  0.94384772     0.13500
C2785       C  0.60031127  0.61415985  0.60832950     0.85300
C2786       C  0.62213489  0.64014995  0.58982654    -0.55000
C2787       C  0.64307594  0.66142980  0.61037377     0.08200
C2788       C  0.63881741  0.65473408  0.64997214     0.19100
C2789       C  0.62476170  0.59540904  0.63279116    -0.55700
C2790       C  0.64527971  0.61544478  0.65502335     0.08300
C2791       C  0.58111556  0.63594745  0.63233785    -0.55200
C2792       C  0.60009232  0.65736962  0.65488686     0.08900
H2793       H  0.62182027  0.64082805  0.56207315     0.13400
H2794       H  0.65511872  0.67157379  0.66759722    -0.00900
H2795       H  0.62547504  0.56767169  0.63251656     0.13700
H2796       H  0.55426857  0.63364953  0.63216396     0.13500
N2797       N  0.55739076  0.98289569  0.95170226    -0.07300
N2798       N  0.58240211  0.97485493  0.93398547    -0.59500
N2799       N  0.02589216  0.55506088  0.94244719    -0.07000
N2800       N  0.02764417  0.58161622  0.92172481    -0.61600
N2801       N  0.55073417  0.55880785  0.96611464    -0.06600
N2802       N  0.56950915  0.58669935  0.96308960    -0.59400
N2803       N  0.52952767  0.97890542  0.93179571    -0.06300
N2804       N  0.53506416  0.96715404  0.90157943    -0.61900
C2805       C  0.56797247  0.96499273  0.90274051     0.94800
C2806       C  0.55383623  0.60296024  0.93683642     0.94600
N2807       N  0.92922153  0.53267818  0.96863625    -0.07500
N2808       N  0.90206908  0.55519247  0.46496274    -0.60000
N2809       N  0.95354909  0.96464805  0.93322584    -0.05600
N2810       N  0.94340479  0.94416693  0.90659984    -0.61300
N2811       N  0.93545198  0.95798422  0.95899782    -0.07600
N2812       N  0.91320501  0.93287768  0.95059608    -0.60300
N2813       N  0.94874801  0.53946958  0.94417430    -0.05300
N2814       N  0.93785715  0.56477570  0.92490473    -0.61400
Mn2815     Mn  0.99064373  0.50877840  0.93787981     1.18400
C2816       C  0.90985059  0.57246777  0.93898598     0.96900
C2817       C  0.91814766  0.92397354  0.91784423     0.97600
N2818       N  0.56542165  0.55299889  0.54337392    -0.07600
N2819       N  0.58693295  0.57870660  0.55262004    -0.63900
N2820       N  0.55197063  0.97090950  0.56039955    -0.06400
N2821       N  0.56346598  0.94746397  0.58169870    -0.64600
N2822       N  0.57124245  0.97521430  0.03397424    -0.07100
N2823       N  0.59687021  0.95560517  0.03756364    -0.64100
N2824       N  0.54547628  0.54702026  0.56769938    -0.06000
N2825       N  0.55325835  0.56832218  0.59396324    -0.64800
Mn2826     Mn  0.56193053  0.51816569  0.00107504     1.10700
C2827       C  0.57882533  0.58877904  0.58414322     0.98100
C2828       C  0.59228953  0.94004360  0.56920259     0.98200
N2829       N  0.95368553  0.94961790  0.53785803    -0.07100
N2830       N  0.93826561  0.91947844  0.53976828    -0.62500
N2831       N  0.96659151  0.53121677  0.56898899    -0.06400
N2832       N  0.96027282  0.54385665  0.59861862    -0.59200
N2833       N  0.93924445  0.52713207  0.54841521    -0.07700
N2834       N  0.91371302  0.53635895  0.56473586    -0.62000
N2835       N  0.97984041  0.95242625  0.56020605    -0.06700
N2836       N  0.47835174  0.92611930  0.57781212    -0.59200
Mn2837     Mn  0.93955945  0.99045089  0.50347425     1.20200
Mn2838     Mn  0.50986023  0.00145732  0.56530197     1.10100
Cl2839     Cl  0.00127110  0.50377022  0.00224482    -0.87200
C2840       C  0.95674811  0.90357583  0.56450551     0.95100
C2841       C  0.92733107  0.54667703  0.59607566     0.94900
N2842       N  0.79945617  0.69431273  0.00295559    -0.07300
N2843       N  0.80697076  0.66681902  0.98639456    -0.59500
N2844       N  0.81066938  0.74963257  0.56771178    -0.07000
N2845       N  0.83847784  0.74700097  0.58736291    -0.61600
N2846       N  0.78945527  0.72444230  0.57501507    -0.06600
N2847       N  0.80281656  0.70525066  0.59946623    -0.59400
N2848       N  0.81929908  0.72051093  0.99559519    -0.06300
N2849       N  0.84067492  0.71110650  0.97416886    -0.61900
C2850       C  0.83224209  0.67773242  0.96832884     0.94800
C2851       C  0.83351106  0.71893060  0.60659321     0.94600
N2852       N  0.77582122  0.83975183  0.51893993    -0.07500
N2853       N  0.77267796  0.87084767  0.53075822    -0.60000
N2854       N  0.81712668  0.79656830  0.96282759    -0.05600
N2855       N  0.84350282  0.80524626  0.94563240    -0.61300
N2856       N  0.79071626  0.81103558  0.94860666    -0.07600
N2857       N  0.79883630  0.82968771  0.92176728    -0.60300
N2858       N  0.80118672  0.82518542  0.53494694    -0.05300
N2859       N  0.81591435  0.84631267  0.55868019    -0.61400
Mn2860     Mn  0.81219710  0.77339350  0.51619202     1.18400
C2861       C  0.79773566  0.87487005  0.55545245     0.96900
C2862       C  0.83199872  0.82572166  0.91928491     0.97600
N2863       N  0.71047283  0.70071606  0.56641201    -0.07600
N2864       N  0.70078305  0.68139107  0.59226447    -0.63900
N2865       N  0.70044137  0.68735431  0.97809416    -0.06400
N2866       N  0.68641871  0.66780274  0.95277188    -0.64600
N2867       N  0.72527728  0.67196278  0.99408956    -0.07100
N2868       N  0.72882117  0.64168749  0.98058989    -0.64100
N2869       N  0.68471815  0.71539483  0.55107073    -0.06000
N2870       N  0.65749169  0.70648787  0.56643285    -0.64800
Mn2871     Mn  0.75596503  0.69860844  0.53631484     1.10700
C2872       C  0.66749047  0.68591835  0.59307481     0.98100
C2873       C  0.70435491  0.63916514  0.95514769     0.98200
N2874       N  0.71243223  0.78762228  0.94025430    -0.07900
N2875       N  0.69966043  0.80750291  0.91617385    -0.62500
N2876       N  0.68180679  0.79005754  0.51801408    -0.06400
N2877       N  0.65983872  0.79899942  0.53893750    -0.59200
N2878       N  0.70131615  0.81652832  0.51079105    -0.07700
N2879       N  0.69284902  0.84393640  0.52696016    -0.62000
N2880       N  0.69062717  0.76289745  0.94718157    -0.06700
N2881       N  0.66266185  0.76680136  0.92808786    -0.59200
Mn2882     Mn  0.74561412  0.81269768  0.97940072     1.20200
Mn2883     Mn  0.68958304  0.73812853  0.99783519     1.10100
Cl2884     Cl  0.75012137  0.75621614  0.50750816    -0.87200
C2885       C  0.66856049  0.79489786  0.90933133     0.95100
C2886       C  0.66709945  0.83258324  0.54434331     0.94900
N2887       N  0.96955438  0.69351746  0.79358087    -0.07300
N2888       N  0.95693332  0.66814554  0.81144624    -0.59500
N2889       N  0.94512576  0.71287829  0.71639733    -0.07000
N2890       N  0.92273294  0.70625010  0.69086209    -0.61600
N2891       N  0.96870167  0.69067557  0.71622041    -0.06600
N2892       N  0.96290016  0.66853305  0.69070495    -0.59400
N2893       N  0.95046853  0.71983670  0.79498371    -0.06300
N2894       N  0.92671531  0.71379878  0.81501988    -0.61900
C2895       C  0.92988829  0.68127221  0.82454225     0.94800
C2896       C  0.93404896  0.67873159  0.67538673     0.94600
N2897       N  0.46042130  0.81777574  0.71273999    -0.07500
N2898       N  0.45957208  0.83398925  0.68352754    -0.60000
N2899       N  0.93887749  0.79783345  0.79224639    -0.05600
N2900       N  0.91467068  0.80250882  0.81267463    -0.61300
N2901       N  0.95950968  0.82472299  0.79310016    -0.07600
N2902       N  0.94882738  0.84859655  0.81398382    -0.60300
N2903       N  0.94031420  0.79155748  0.71193555    -0.05300
N2904       N  0.92593956  0.78753061  0.68051515    -0.61400
Mn2905     Mn  0.94318725  0.75524871  0.75398702     1.18400
C2906       C  0.93980183  0.81370365  0.66347418     0.96900
C2907       C  0.92057587  0.83434123  0.82664549     0.97600
N2908       N  0.54683713  0.69023839  0.71763887    -0.07600
N2909       N  0.55402483  0.66592323  0.69578263    -0.63900
N2910       N  0.56969856  0.72286310  0.79751621    -0.06400
N2911       N  0.58956393  0.72273235  0.82606924    -0.64600
N2912       N  0.04827670  0.69688663  0.79635023    -0.07100
N2913       N  0.05329217  0.67689404  0.82284818    -0.64100
N2914       N  0.56951558  0.71534220  0.71795637    -0.06000
N2915       N  0.59263848  0.70825970  0.69669194    -0.64800
Mn2916     Mn  0.00860702  0.69193908  0.75570965     1.10700
C2917       C  0.58285307  0.67712813  0.68252721     0.98100
C2918       C  0.57784149  0.69495620  0.84245318     0.98200
N2919       N  0.54028070  0.82415983  0.79246121    -0.07100
N2920       N  0.54725367  0.84778961  0.81631882    -0.62500
N2921       N  0.55901071  0.79493895  0.71492201    -0.06400
N2922       N  0.58101320  0.80020045  0.69268366    -0.59200
N2923       N  0.53807751  0.81990532  0.71468191    -0.07700
N2924       N  0.54674469  0.84308107  0.69212032    -0.62000
N2925       N  0.56433262  0.80238609  0.79200939    -0.06700
N2926       N  0.58817349  0.81107588  0.81547351    -0.59200
Mn2927     Mn  0.49954323  0.82307493  0.75347306     1.20200
Mn2928     Mn  0.56648662  0.75924828  0.75555840     1.10100
Cl2929     Cl  0.50417913  0.75742443  0.75471543    -0.87200
C2930       C  0.57735383  0.83937234  0.82993164     0.95100
C2931       C  0.57377353  0.83038041  0.67855986     0.94900
N2932       N  0.79029980  0.94034151  0.79898627    -0.07300
N2933       N  0.79987056  0.91146464  0.81397714    -0.59500
N2934       N  0.77139544  0.51200704  0.83852798    -0.07000
N2935       N  0.76826854  0.53626151  0.86117353    -0.61600
N2936       N  0.74541825  0.49063685  0.83654786    -0.06600
N2937       N  0.72378579  0.50052808  0.85789209    -0.59400
N2938       N  0.81537387  0.96312943  0.80112570    -0.06300
N2939       N  0.84213364  0.94973508  0.81749221    -0.61900
C2940       C  0.83256441  0.91693661  0.82504166     0.94800
C2941       C  0.73879318  0.52879280  0.87348436     0.94600
N2942       N  0.77559744  0.58824096  0.76617672    -0.07500
N2943       N  0.78218055  0.62147263  0.76971976    -0.60000
N2944       N  0.83168447  0.02816903  0.75051739    -0.05600
N2945       N  0.86255192  0.02091643  0.74538022    -0.61300
N2946       N  0.81830868  0.04527792  0.72423147    -0.07600
N2947       N  0.83952081  0.05027003  0.70120492    -0.60300
N2948       N  0.78856582  0.57226159  0.79347910    -0.05300
N2949       N  0.80266588  0.59443364  0.81586396    -0.61400
Mn2950     Mn  0.80197982  0.51825186  0.79606676     1.18400
C2951       C  0.79988335  0.62495321  0.80057463     0.96900
C2952       C  0.86678666  0.03548824  0.71463406     0.97600
N2953       N  0.68657691  0.47618950  0.78372332    -0.07600
N2954       N  0.66592615  0.47448813  0.80763263    -0.63900
N2955       N  0.71746118  0.94696367  0.71167483    -0.06400
N2956       N  0.70278414  0.92714137  0.68751860    -0.64600
N2957       N  0.72461901  0.92954168  0.73993470    -0.07100
N2958       N  0.71113026  0.89813390  0.73568820    -0.64100
N2959       N  0.67378186  0.49249090  0.75671771    -0.06000
N2960       N  0.64364100  0.50219071  0.76187184    -0.64800
Mn2961     Mn  0.73741980  0.95804173  0.78910331     1.10700
C2962       C  0.63953890  0.49049738  0.79378161     0.98100
C2963       C  0.69766052  0.89705108  0.70258960     0.98200
N2964       N  0.76079812  0.02872015  0.66999912    -0.07100
N2965       N  0.78326902  0.01919116  0.64937519    -0.62500
N2966       N  0.68930952  0.55389449  0.70643904    -0.06400
N2967       N  0.66150372  0.56478002  0.69084394    -0.59200
N2968       N  0.71297025  0.57790773  0.70657159    -0.07700
N2969       N  0.70125143  0.60565866  0.69050032    -0.62000
N2970       N  0.73544697  0.00657903  0.66790182    -0.06700
N2971       N  0.73979479  0.98212140  0.64577313    -0.59200
Mn2972     Mn  0.76574980  0.56067613  0.71697261     1.20200
Mn2973     Mn  0.70422294  0.00045122  0.71029000     1.10100
Cl2974     Cl  0.75180817  0.50875958  0.75369230    -0.87200
C2975       C  0.76930898  0.99038021  0.63383982     0.95100
C2976       C  0.66852104  0.59741591  0.68131081     0.94900
C2977       C  0.84048065  0.66000768  0.83727009    -0.21500
C2978       C  0.83021246  0.64679096  0.80459472    -0.08100
C2979       C  0.85397286  0.64356245  0.78031673     0.12800
C2980       C  0.88750052  0.64882080  0.79073587    -0.21600
C2981       C  0.89794057  0.66235474  0.82311340    -0.08100
C2982       C  0.87380601  0.67043404  0.84561927     0.12800
C2983       C  0.88297491  0.69212285  0.87695486    -0.24900
H2984       H  0.82238190  0.66261366  0.85591032     0.14100
H2985       H  0.90552420  0.64581191  0.77204758     0.14100
C2986       C  0.84454539  0.63474296  0.74321276    -0.24900
H2987       H  0.86162040  0.69465839  0.89267694     0.04300
H2988       H  0.89102518  0.71825921  0.86930490     0.07500
H2989       H  0.90385248  0.68084312  0.89239682     0.07500
H2990       H  0.82604139  0.65274980  0.73232714     0.07500
H2991       H  0.83440279  0.60811599  0.74073166     0.07500
H2992       H  0.86613953  0.63706137  0.72759488     0.04300
C2993       C  0.66269441  0.85110287  0.67171691    -0.21500
C2994       C  0.66514069  0.88021190  0.69265490    -0.08100
C2995       C  0.63593645  0.89760711  0.69821146     0.12800
C2996       C  0.60510468  0.88419964  0.68499888    -0.21600
C2997       C  0.60220067  0.85212133  0.66927383    -0.08100
C2998       C  0.63140913  0.83669861  0.65999305     0.12800
C2999       C  0.63010951  0.80369889  0.63997585    -0.24900
H3000       H  0.68502808  0.83922131  0.66514173     0.14100
H3001       H  0.58299119  0.89668915  0.69123580     0.14100
C3002       C  0.63669208  0.92988425  0.71922385    -0.24900
H3003       H  0.64473764  0.80693416  0.61739374     0.04300
H3004       H  0.60431793  0.79560288  0.63064593     0.07500
H3005       H  0.64096645  0.78320335  0.65633741     0.07500
H3006       H  0.64935603  0.95093271  0.70583135     0.07500
H3007       H  0.64954551  0.92542947  0.74483513     0.07500
H3008       H  0.61142763  0.93828885  0.72324086     0.04300
C3009       C  0.79260434  0.93316335  0.63190193    -0.21500
C3010       C  0.78712595  0.96459174  0.61549814    -0.08100
C3011       C  0.79148824  0.96741258  0.58030251     0.12800
C3012       C  0.79866230  0.93806132  0.56181046    -0.21600
C3013       C  0.80116732  0.90586716  0.57765779    -0.08100
C3014       C  0.79917130  0.90367506  0.61340966     0.12800
C3015       C  0.80040372  0.86975248  0.63154054    -0.24900
H3016       H  0.78889771  0.93102851  0.65898467     0.14100
H3017       H  0.79995976  0.93974166  0.53427212     0.14100
C3018       C  0.78623178  0.00074051  0.56193672    -0.24900
H3019       H  0.79752940  0.87257341  0.65935497     0.04300
H3020       H  0.82450470  0.85804548  0.62876439     0.07500
H3021       H  0.78000570  0.85218903  0.62046197     0.07500
H3022       H  0.80380826  0.02083763  0.57369509     0.07500
H3023       H  0.76042540  0.00861835  0.56394026     0.07500
H3024       H  0.79038763  0.99862908  0.53434175     0.04300
C3025       C  0.69883795  0.57731215  0.94212908    -0.21500
C3026       C  0.70280131  0.61099149  0.93006380    -0.08100
C3027       C  0.71389073  0.61662906  0.89733076     0.12800
C3028       C  0.72303484  0.58863790  0.87832785    -0.21600
C3029       C  0.72172750  0.55521837  0.89154570    -0.08100
C3030       C  0.70788076  0.54921114  0.92290106     0.12800
C3031       C  0.70443939  0.51360075  0.93696163    -0.24900
H3032       H  0.69071476  0.57324999  0.96731884     0.14100
H3033       H  0.73309005  0.59307565  0.85398633     0.14100
C3034       C  0.71897658  0.65233943  0.88366743    -0.24900
H3035       H  0.69365474  0.51350731  0.96211843     0.04300
H3036       H  0.72915806  0.50222651  0.94038156     0.07500
H3037       H  0.68783388  0.49749707  0.91886298     0.07500
H3038       H  0.73741261  0.66721157  0.90096172     0.07500
H3039       H  0.69526490  0.66566716  0.88211574     0.07500
H3040       H  0.72811923  0.65209728  0.85771259     0.04300
C3041       C  0.58732327  0.83853648  0.88961298    -0.21500
C3042       C  0.59536435  0.85508292  0.85969365    -0.08100
C3043       C  0.62883040  0.86261445  0.85501197     0.12800
C3044       C  0.65249468  0.84254897  0.87199914    -0.21600
C3045       C  0.64285317  0.81730673  0.89508469    -0.08100
C3046       C  0.61044116  0.81747859  0.90653743     0.12800
C3047       C  0.59957955  0.79546069  0.93547019    -0.24900
H3048       H  0.56146991  0.83578461  0.89492738     0.14100
H3049       H  0.67804111  0.84518629  0.86565168     0.14100
C3050       C  0.63850532  0.88713841  0.82762708    -0.24900
H3051       H  0.57388932  0.80059610  0.94146525     0.04300
H3052       H  0.61623183  0.80082958  0.95901063     0.07500
H3053       H  0.59992002  0.76801164  0.92836760     0.07500
H3054       H  0.63067452  0.91303580  0.83389167     0.07500
H3055       H  0.62639407  0.87908894  0.80223299     0.07500
H3056       H  0.66577129  0.88861477  0.82580911     0.04300
C3057       C  0.89167996  0.70316073  0.60416614    -0.21500
C3058       C  0.86104149  0.69718887  0.61821282    -0.08100
C3059       C  0.85703460  0.66823878  0.63956255     0.12800
C3060       C  0.88527221  0.65067154  0.65105588    -0.21600
C3061       C  0.91666313  0.66409184  0.64462360    -0.08100
C3062       C  0.91930462  0.68517759  0.61607535     0.12800
C3063       C  0.95239987  0.69238558  0.60210258    -0.24900
H3064       H  0.89442800  0.72242152  0.58462391     0.14100
H3065       H  0.88343909  0.63127830  0.67062028     0.14100
C3066       C  0.82403497  0.65669613  0.65178265    -0.24900
H3067       H  0.95045580  0.71051953  0.58030573     0.04300
H3068       H  0.96191842  0.66812197  0.59286052     0.07500
H3069       H  0.97045048  0.70361470  0.62235677     0.07500
H3070       H  0.80668489  0.64823230  0.62968667     0.07500
H3071       H  0.81347692  0.67789117  0.66566839     0.07500
H3072       H  0.82637231  0.63454038  0.66935808     0.04300
C3073       C  0.85806140  0.59953186  0.92387231    -0.21500
C3074       C  0.89226987  0.60325498  0.93187769    -0.08100
C3075       C  0.90695362  0.63457471  0.94416750     0.12800
C3076       C  0.88640340  0.66001891  0.95364885    -0.21600
C3077       C  0.85185108  0.65461243  0.94993559    -0.08100
C3078       C  0.83741114  0.62523398  0.93258547     0.12800
C3079       C  0.80052362  0.62027881  0.92413249    -0.24900
H3080       H  0.84735679  0.57532629  0.91386520     0.14100
H3081       H  0.89730792  0.68304586  0.96585308     0.14100
C3082       C  0.94169485  0.64335770  0.44465479    -0.24900
H3083       H  0.79124507  0.64264955  0.90952758     0.04300
H3084       H  0.78747356  0.61718015  0.94778662     0.07500
H3085       H  0.79428788  0.59707043  0.90810323     0.07500
H3086       H  0.95146360  0.63972246  0.41925535     0.07500
H3087       H  0.95463290  0.62174309  0.96858503     0.07500
H3088       H  0.94880902  0.66983560  0.45352665     0.04300
C3089       C  0.66378214  0.88535800  0.57727146    -0.21500
C3090       C  0.64758850  0.85536975  0.56352880    -0.08100
C3091       C  0.61267777  0.85088968  0.56356667     0.12800
C3092       C  0.59429533  0.87595776  0.06936093    -0.21600
C3093       C  0.61086730  0.91046436  0.57956664    -0.08100
C3094       C  0.64556603  0.91334092  0.58511959     0.12800
C3095       C  0.66314990  0.94634750  0.59749614    -0.24900
H3096       H  0.69064944  0.88797601  0.57892318     0.14100
H3097       H  0.56743009  0.87395204  0.06521330     0.14100
C3098       C  0.59454884  0.81562987  0.04859781    -0.24900
H3099       H  0.69047184  0.94392350  0.60065666     0.04300
H3100       H  0.65469275  0.95343137  0.62273959     0.07500
H3101       H  0.65772379  0.96718218  0.57897716     0.07500
H3102       H  0.60262261  0.79364826  0.06456166     0.07500
H3103       H  0.59935759  0.81099946  0.02151301     0.07500
H3104       H  0.56728251  0.81703992  0.04954996     0.04300
C3105       C  0.60529147  0.50428036  0.87364642    -0.21500
C3106       C  0.58370321  0.97187893  0.87097869    -0.08100
C3107       C  0.57293308  0.95484935  0.83982767     0.12800
C3108       C  0.58790971  0.96415187  0.80997851    -0.21600
C3109       C  0.61154808  0.49486264  0.81365088    -0.08100
C3110       C  0.61745324  0.51539658  0.84317294     0.12800
C3111       C  0.63838173  0.54803599  0.84344600    -0.24900
H3112       H  0.61087477  0.51970409  0.89661532     0.14100
H3113       H  0.58344532  0.94838292  0.78712243     0.14100
C3114       C  0.54622788  0.92677729  0.83799983    -0.24900
H3115       H  0.62356106  0.56925077  0.85160860     0.04300
H3116       H  0.66034594  0.54581763  0.86187098     0.07500
H3117       H  0.64674528  0.55431127  0.81782579     0.07500
H3118       H  0.52215729  0.93735265  0.84325646     0.07500
H3119       H  0.55258497  0.90684487  0.85718119     0.07500
H3120       H  0.54284220  0.91487011  0.81212866     0.04300
C3121       C  0.92318590  0.56344646  0.65571981    -0.21500
C3122       C  0.91064225  0.54295603  0.62768374    -0.08100
C3123       C  0.89331783  0.01306706  0.63310472     0.12800
C3124       C  0.88374366  0.00693488  0.66598689    -0.21600
C3125       C  0.89306154  0.02989136  0.69279012    -0.08100
C3126       C  0.91332925  0.55704305  0.68855684     0.12800
C3127       C  0.92549854  0.58046981  0.71793674    -0.24900
H3128       H  0.94070359  0.58456301  0.65182797     0.14100
H3129       H  0.86570145  0.98626657  0.66994191     0.14100
C3130       C  0.88135117  0.98794294  0.60505092    -0.24900
H3131       H  0.94292041  0.60099201  0.70984669     0.04300
H3132       H  0.93861469  0.56546079  0.73848216     0.07500
H3133       H  0.90431723  0.59270287  0.72848414     0.07500
H3134       H  0.90294601  0.97703391  0.59389749     0.07500
H3135       H  0.86575976  0.00094160  0.58483592     0.07500
H3136       H  0.86604386  0.96637365  0.61469251     0.04300
C3137       C  0.97039392  0.84649648  0.58602435    -0.21500
C3138       C  0.94656904  0.87102725  0.57962786    -0.08100
C3139       C  0.91513075  0.86650995  0.59267898     0.12800
C3140       C  0.90989745  0.83988181  0.61563824    -0.21600
C3141       C  0.93602078  0.81947174  0.62679079    -0.08100
C3142       C  0.96518917  0.82022287  0.60933138     0.12800
C3143       C  0.48795190  0.79844567  0.61730686    -0.24900
H3144       H  0.99405335  0.84952731  0.57501418     0.14100
H3145       H  0.88754688  0.83885071  0.62915904     0.14100
C3146       C  0.88880044  0.89225472  0.58634262    -0.24900
H3147       H  0.50860109  0.80231077  0.60052109     0.04300
H3148       H  0.98200369  0.76892020  0.61344714     0.07500
H3149       H  0.49849275  0.80168718  0.64422745     0.07500
H3150       H  0.88065134  0.89321607  0.55863208     0.07500
H3151       H  0.89883280  0.91773143  0.59541299     0.07500
H3152       H  0.86679919  0.88587721  0.60044372     0.04300
C3153       C  0.07668383  0.68724356  0.90104439    -0.21500
C3154       C  0.58938033  0.68310373  0.87623521    -0.08100
C3155       C  0.60519152  0.65173845  0.87729638     0.12800
C3156       C  0.59464250  0.62630201  0.89937872    -0.21600
C3157       C  0.56917658  0.63231745  0.92041360    -0.08100
C3158       C  0.06502879  0.66225812  0.92319892     0.12800
C3159       C  0.04428576  0.67218599  0.95150970    -0.24900
H3160       H  0.06826065  0.71311335  0.90260303     0.14100
H3161       H  0.60431813  0.60095609  0.89819029     0.14100
C3162       C  0.62812838  0.64263103  0.85066266    -0.24900
H3163       H  0.04147472  0.70028597  0.95251476     0.04300
H3164       H  0.05628080  0.66404960  0.97652697     0.07500
H3165       H  0.01920049  0.65952213  0.94745305     0.07500
H3166       H  0.64952424  0.62911524  0.86279100     0.07500
H3167       H  0.63777003  0.66583240  0.83781229     0.07500
H3168       H  0.61459552  0.62562947  0.83101154     0.04300
loop_ 
_geom_bond_atom_site_label_1 
_geom_bond_atom_site_label_2 
_geom_bond_distance 
_geom_bond_site_symmetry_2 
_ccdc_geom_bond_type 
C1            C2   1.543       .  S
C1            C7   1.537       .  S
C1            C5   1.565       .  S
C1           C90   1.596       .  S
C2            H9   1.085       .  S
C2            C3   1.375       .  D
C3            C4   1.588       .  S
C3          C168   1.540       .  S
C4            C8   1.579       .  S
C4            C6   1.587       .  S
C4           H10   1.110       .  S
C5           H11   1.085       .  S
C5            C6   1.396       .  D
C6          C135   1.567       .  S
C7           H12   1.086       .  S
C7            C8   1.375       .  D
C8           C45   1.535       .  S
C13          C14   1.538       .  S
C13          C19   1.538       .  S
C13          C17   1.532       .  S
C13          C55   1.551       .  S
C14          H21   1.086       .  S
C14          C15   1.371       .  D
C15          C16   1.597       .  S
C15         C100   1.543       .  S
C16          C20   1.606       .  S
C16          C18   1.581       .  S
C16          H22   1.110       .  S
C17          H23   1.087       .  S
C17          C18   1.374       .  D
C18         C204   1.533       .  S
C19          H24   1.086       .  S
C19          C20   1.375       .  D
C20         C145   1.553       .  S
N25          N26   1.321       .  A
N25          N31   1.321       .  A
N25        Mn846   2.229       .  S
N26          C33   1.357       .  A
N27          N28   1.324       .  A
N27        N1613   1.318       .  A
N27         Mn43   2.255       .  S
N28        C1618   1.359       .  A
N29          N30   1.314       .  A
N29        N1611   1.319       .  A
N29         Mn54   2.142       .  S
N30          C34   1.339       .  A
N31          N32   1.308       .  A
N31       Mn2419   2.148   1_455  S
N32          C33   1.336       .  A
C33         C334   1.462       .  S
C34        N1612   1.359       .  A
C34         C385   1.459       .  S
N35          N41   1.310       .  A
N35         N432   1.309       .  A
N35       Mn1253   2.161   1_545  S
N36         N431   1.312       .  A
N36         C440   1.350       .  A
N37          N38   1.340       .  A
N37          N39   1.314       .  A
N37        Mn835   2.280       .  S
N38          C45   1.369       .  A
N39          N40   1.324       .  A
N39        Mn461   2.232       .  S
N40          C45   1.359       .  A
N41          N42   1.315       .  A
N41         Mn43   2.149       .  S
N42          C44   1.347       .  A
Mn43       N2407   2.141   1_545  S
Mn43        N829   2.271   1_545  S
Mn43        Cl67   2.529       .  S
C44         N432   1.347       .  A
C44         C302   1.434       .  S
N46          N47   1.329       .  A
N46          N52   1.313       .  A
N46        Mn450   2.241       .  S
N47          C55   1.361       .  A
N48          N49   1.316       .  A
N48         N446   1.310       .  A
N48         Mn66   2.150       .  S
N49          C56   1.346       .  A
N50          N51   1.315       .  A
N50         N444   1.310       .  A
N50        Mn846   2.187       .  S
N51         C452   1.353       .  A
N52          N53   1.331       .  A
N52        Mn858   2.245       .  S
N53          C55   1.363       .  A
Mn54        N817   2.240   1_545  S
Mn54        N442   2.262       .  S
Mn54        N842   2.190   1_545  S
Mn54      Cl1651   2.551       .  S
C56         N447   1.353       .  A
C56         C321   1.448       .  S
N57          N58   1.318       .  A
N57          N63   1.318       .  A
N57         Mn65   2.166       .  S
N58          C68   1.345       .  A
N59          N60   1.309       .  A
N59          N61   1.318       .  A
N59       Mn2442   2.145       .  S
N60          C69   1.339       .  A
N61          N62   1.321       .  A
N61        Mn857   2.226   1_545  S
N62          C69   1.356       .  A
N63        N1648   1.322       .  A
N63       Mn1650   2.240       .  S
N64        N1647   1.321       .  A
N64        C1652   1.356       .  A
Mn65       N1223   2.177   1_554  S
Mn65        N435   2.238   1_554  S
Mn65        N853   2.218       .  S
Mn65      Cl1255   2.548       .  S
Mn66        N844   2.253       .  S
Mn66       N2435   2.144   1_455  S
Mn66       N1647   2.238   1_455  S
Mn66      Cl2839   2.530       .  S
Cl67      Mn1638   2.551       .  S
Cl67      Mn1253   2.549   1_545  S
Cl67      Mn2838   2.525       .  S
C68        N1648   1.356       .  A
C68         C366   1.466       .  S
C69         C350   1.464       .  S
N70          N71   1.313       .  A
N70          N76   1.321       .  A
N70        Mn495   2.202       .  S
N71          C78   1.346       .  A
N72          N74   1.326       .  A
N72          N73   1.320       .  A
N72         Mn88   2.230       .  S
N73          C79   1.352       .  A
N74          N75   1.313       .  A
N74         Mn99   2.162       .  S
N75          C79   1.338       .  A
N76          N77   1.314       .  A
N76        Mn484   2.164       .  S
N77          C78   1.347       .  A
C78         C305   1.445       .  S
C79         C286   1.472       .  S
N80          N86   1.311       .  A
N80          N81   1.314       .  A
N80        Mn506   2.170   1_554  S
N81          C89   1.345       .  A
N82          N83   1.341       .  A
N82          N84   1.314       .  A
N82        Mn484   2.296       .  S
N83          C90   1.370       .  A
N84          N85   1.336       .  A
N84        Mn110   2.275       .  S
N85          C90   1.370       .  A
N86          N87   1.329       .  A
N86         Mn88   2.230       .  S
N87          C89   1.365       .  A
Mn88        N472   2.175   1_554  S
Mn88        N478   2.297   1_554  S
Mn88       Cl112   2.570       .  S
C89         C241   1.484       .  S
N91          N92   1.339       .  A
N91          N97   1.313       .  A
N91         Mn99   2.268       .  S
N92         C100   1.370       .  A
N93          N95   1.310       .  A
N93          N94   1.326       .  A
N93        Mn111   2.209       .  S
N94         C101   1.361       .  A
N95          N96   1.315       .  A
N95        Mn495   2.180       .  S
N96         C101   1.347       .  A
N97          N98   1.332       .  A
N97        Mn507   2.274   1_554  S
N98         C100   1.365       .  A
Mn99        N466   2.206       .  S
Mn99        N491   2.178   1_554  S
Mn99       Cl112   2.528       .  S
C101        C254   1.476       .  S
N102        N103   1.311       .  A
N102        N108   1.325       .  A
N102       Mn110   2.155       .  S
N103        C113   1.337       .  A
N104        N105   1.316       .  A
N104        N106   1.319       .  A
N104       Mn507   2.163   1_554  S
N105        C114   1.347       .  A
N106        N107   1.315       .  A
N106       Mn506   2.210   1_554  S
N107        C114   1.349       .  A
N108        N109   1.319       .  A
N108       Mn111   2.218       .  S
N109        C113   1.348       .  A
Mn110       N476   2.165       .  S
Mn110       N502   2.224       .  S
Mn110      Cl508   2.518       .  S
Mn111       N493   2.282       .  S
Mn111       N500   2.155       .  S
Mn111      Cl508   2.570       .  S
Cl112      Mn506   2.522   1_554  S
Cl112      Mn507   2.567   1_554  S
C113        C273   1.463       .  S
C114        C318   1.461       .  S
N115        N116   1.323       .  A
N115        N121   1.316       .  A
N115       Mn144   2.244       .  S
N116        C123   1.364       .  A
N117        N119   1.319       .  A
N117        N118   1.311       .  A
N117       Mn133   2.219       .  S
N118        C124   1.349       .  A
N119        N120   1.320       .  A
N119       Mn144   2.148       .  S
N120        C124   1.345       .  A
N121        N122   1.305       .  A
N121       Mn133   2.141       .  S
N122        C123   1.338       .  A
C123        C209   1.458       .  S
C124        C289   1.449       .  S
N125        N126   1.308       .  A
N125       N1715   1.311       .  A
N125       Mn155   2.156       .  S
N126       C1718   1.344       .  A
N127        N128   1.332       .  A
N127        N129   1.314       .  A
N127       Mn133   2.253       .  S
N128        C135   1.361       .  A
N129        N130   1.347       .  A
N129      Mn1739   2.327       .  S
N130        C135   1.380       .  A
N131        N132   1.324       .  A
N131       N1709   1.310       .  A
N131       Mn133   2.191       .  S
N132        C134   1.355       .  A
Mn133     Cl1741   2.506       .  S
C134       N1710   1.345       .  A
C134        C369   1.454       .  S
N136        N137   1.334       .  A
N136        N142   1.314       .  A
N136      Mn1728   2.293       .  S
N137        C145   1.371       .  A
N138        N139   1.323       .  A
N138       N1724   1.311       .  A
N138       Mn156   2.175       .  S
N139        C146   1.352       .  A
N140        N141   1.308       .  A
N140       N1722   1.310       .  A
N140       Mn144   2.162       .  S
N141       C1730   1.346       .  A
N142        N143   1.340       .  A
N142       Mn156   2.264       .  S
N143        C145   1.365       .  A
Mn144      N1720   2.283       .  S
Mn144     Cl1741   2.579       .  S
C146       N1725   1.346       .  A
C146        C382   1.450       .  S
N147        N148   1.319       .  A
N147        N153   1.322       .  A
N147       Mn155   2.155   1_455  S
N148        C158   1.345       .  A
N149        N150   1.305       .  A
N149        N151   1.318       .  A
N149       Mn156   2.129       .  S
N150        C159   1.338       .  A
N151        N152   1.325       .  A
N151       Mn155   2.268   1_455  S
N152        C159   1.367       .  A
N153        N154   1.309       .  A
N153       Mn156   2.213       .  S
N154        C158   1.347       .  A
Mn155      N1713   2.322       .  S
Mn155      Cl157   2.585   1_655  S
Mn156      Cl157   2.514       .  S
Cl157     Mn1717   2.500   1_455  S
Cl157     Mn1728   2.577       .  S
C158        C270   1.446       .  S
C159        C225   1.472       .  S
N160        N161   1.331       .  A
N160        N166   1.319       .  A
N160       Mn189   2.277       .  S
N161        C168   1.366       .  A
N162        N164   1.313   1_545  A
N162        N163   1.316       .  A
N162       Mn178   2.169       .  S
N163        C169   1.345       .  A
N164        N165   1.329   1_565  A
N164       Mn981   2.229       .  S
N165        C169   1.358       .  A
N166        N167   1.338       .  A
N166       Mn970   2.256       .  S
N167        C168   1.362       .  A
C169        C257   1.483       .  S
N170        N176   1.323       .  A
N170        N171   1.323       .  A
N170       Mn200   2.216       .  S
N171        C179   1.359       .  A
N172        N173   1.325       .  A
N172        N174   1.320       .  A
N172       Mn970   2.195       .  S
N173        C180   1.355       .  A
N174        N175   1.302       .  A
N174       Mn992   2.161       .  S
N175        C180   1.335       .  A
N176        N177   1.310       .  A
N176       Mn178   2.200       .  S
N177        C179   1.340       .  A
Mn178       N958   2.255   1_545  S
Mn178       N964   2.196       .  S
Mn178      Cl202   2.520       .  S
C179        C206   1.465       .  S
C180        C353   1.440       .  S
N181        N182   1.304       .  A
N181        N187   1.316       .  A
N181       Mn981   2.149       .  S
N182        C190   1.338       .  A
N183        N185   1.320       .  A
N183        N184   1.308       .  A
N183       Mn201   2.179       .  S
N184        C191   1.333       .  A
N185        N186   1.327       .  A
N185       Mn189   2.231       .  S
N186        C191   1.363       .  A
N187        N188   1.324   1_565  A
N187       Mn993   2.193   1_565  S
N188        C190   1.352   1_545  A
Mn189       N956   2.222       .  S
Mn189       N973   2.150       .  S
Mn189      Cl994   2.563       .  S
C190        C337   1.439       .  S
C191        C222   1.466       .  S
N192        N193   1.329       .  A
N192        N198   1.311       .  A
N192       Mn992   2.226       .  S
N193        C203   1.359       .  A
N194        N195   1.322       .  A
N194        N196   1.313       .  A
N194       Mn993   2.208       .  S
N195        C204   1.354       .  A
N196        N197   1.342       .  A
N196       Mn200   2.286       .  S
N197        C204   1.371       .  A
N198        N199   1.316       .  A
N198       Mn201   2.170       .  S
N199        C203   1.345       .  A
Mn200       N966   2.167       .  S
Mn200       N984   2.234       .  S
Mn200      Cl202   2.567       .  S
Mn201       N979   2.196       .  S
Mn201       N986   2.216       .  S
Mn201      Cl994   2.506       .  S
Cl202      Mn981   2.566   1_545  S
Cl202      Mn993   2.505       .  S
C203        C238   1.482       .  S
C205        C206   1.405       .  A
C205        C210   1.406       .  A
C205        H212   1.082       .  S
C206        C207   1.413       .  A
C207        C214   1.505       .  S
C207        C208   1.390       .  A
C208        C209   1.400       .  A
C208        H213   1.084       .  S
C209        C210   1.413       .  A
C210        C211   1.502       .  S
C211        H215   1.108       .  S
C211        H216   1.109       .  S
C211        H217   1.106       .  S
C214        H218   1.110       .  S
C214        H219   1.105       .  S
C214        H220   1.107       .  S
C221        C222   1.395       .  A
C221        C226   1.403       .  A
C221        H228   1.084       .  S
C222        C223   1.421       .  A
C223        C230   1.507       .  S
C223        C224   1.393       .  A
C224        C225   1.394       .  A
C224        H229   1.084       .  S
C225        C226   1.424       .  A
C226        C227   1.506       .  S
C227        H231   1.109       .  S
C227        H232   1.110       .  S
C227        H233   1.111       .  S
C230        H234   1.107       .  S
C230        H235   1.110       .  S
C230        H236   1.111       .  S
C237        C238   1.407       .  A
C237        C242   1.408       .  A
C237        H244   1.086       .  S
C238        C239   1.408       .  A
C239        C246   1.505       .  S
C239        C240   1.407       .  A
C240        C241   1.409       .  A
C240        H245   1.086       .  S
C241        C242   1.411       .  A
C242        C243   1.506       .  S
C243        H247   1.111       .  S
C243        H248   1.109       .  S
C243        H249   1.110       .  S
C246        H250   1.110       .  S
C246        H251   1.110       .  S
C246        H252   1.111       .  S
C253        C254   1.408       .  A
C253        C258   1.411       .  A
C253        H260   1.074       .  S
C254        C255   1.408       .  A
C255        C262   1.508       .  S
C255        C256   1.405       .  A
C256        C257   1.408       .  A
C256        H261   1.078       .  S
C257        C258   1.409       .  A
C258        C259   1.504       .  S
C259        H263   1.110       .  S
C259        H264   1.111       .  S
C259        H265   1.111   1_545  S
C262        H266   1.110       .  S
C262        H267   1.110       .  S
C262        H268   1.110       .  S
C269        C270   1.395       .  A
C269        C274   1.400       .  A
C269        H276   1.085       .  S
C270        C271   1.401       .  A
C271        C278   1.505       .  S
C271        C272   1.393       .  A
C272        C273   1.405       .  A
C272        H277   1.084       .  S
C273        C274   1.421       .  A
C274        C275   1.508       .  S
C275        H279   1.111       .  S
C275        H280   1.111       .  S
C275        H281   1.109       .  S
C278        H282   1.108       .  S
C278        H283   1.110       .  S
C278        H284   1.111       .  S
C285        C286   1.408       .  A
C285        C290   1.397       .  A
C285        H292   1.083       .  S
C286        C287   1.420       .  A
C287        C294   1.508       .  S
C287        C288   1.401       .  A
C288        C289   1.396       .  A
C288        H293   1.081       .  S
C289        C290   1.400       .  A
C290        C291   1.505       .  S
C291        H295   1.111       .  S
C291        H296   1.110       .  S
C291        H297   1.110       .  S
C294        H298   1.108       .  S
C294        H299   1.111       .  S
C294        H300   1.110       .  S
C301        C302   1.395       .  A
C301        C306   1.393       .  A
C301        H308   1.083       .  S
C302        C303   1.404       .  A
C303        C706   1.505       .  S
C303        C304   1.388       .  A
C304        C305   1.399       .  A
C304        H309   1.079       .  S
C305        C306   1.411       .  A
C306        C307   1.506       .  S
C307        H311   1.109       .  S
C307        H312   1.109       .  S
C307        H313   1.111       .  S
C310        C699   1.507       .  S
C310        H314   1.111       .  S
C310        H316   1.110       .  S
C310        H711   1.110       .  S
H315        C706   1.110       .  S
C317        C318   1.403       .  A
C317        C322   1.393       .  A
C317        H324   1.085       .  S
C318        C319   1.415       .  A
C319        C722   1.509       .  S
C319        C716   1.394       .  A
C320        C715   1.395       .  A
C320        C717   1.396       .  A
C320        H325   1.085       .  S
C321        C322   1.404       .  A
C321        C716   1.397       .  A
C322        C323   1.507       .  S
C323        H327   1.111       .  S
C323        H328   1.110       .  S
C323        H329   1.109       .  S
C326        C715   1.510       .  S
C326        H330   1.109       .  S
C326        H331   1.110       .  S
C326        H332   1.111       .  S
C333        C338   1.392       .  A
C333       C1126   1.403   1_545  A
C333        H340   1.084       .  S
C334        C335   1.416       .  A
C334       C1125   1.403       .  A
C335        C342   1.506       .  S
C335        C336   1.398       .  A
C336       C1129   1.395       .  A
C336        H341   1.084       .  S
C337        C338   1.406   1_565  A
C337       C1128   1.396       .  A
C338        C339   1.507       .  S
C339        H343   1.111       .  S
C339        H344   1.108       .  S
C339        H345   1.108       .  S
C342        H346   1.109       .  S
C342        H347   1.107       .  S
C342        H348   1.110       .  S
C349        C350   1.406       .  A
C349        C354   1.398       .  A
C349        H356   1.084       .  S
C350       C1143   1.416       .  A
C351        C358   1.509       .  S
C351        C352   1.394       .  A
C351       C1142   1.418       .  A
C352        C353   1.398       .  A
C352        H357   1.087       .  S
C353       C1146   1.404       .  A
C354        C355   1.506       .  S
C354       C1145   1.404       .  A
C355        H359   1.110       .  S
C355        H360   1.110       .  S
C355        H361   1.107       .  S
C358        H362   1.109       .  S
C358        H363   1.109       .  S
C358        H364   1.109       .  S
C365        C366   1.400       .  A
C365        C370   1.402       .  A
C365        H372   1.085       .  S
C366        C367   1.411       .  A
C367        C374   1.503       .  S
C367        C368   1.398       .  A
C368        C369   1.397       .  A
C368        H373   1.085       .  S
C369        C370   1.410       .  A
C370       C1955   1.507       .  S
C371       C1954   1.509       .  S
C371        H375   1.111   1_655  S
C371        H377   1.110       .  S
C371       H1960   1.109       .  S
C374        H378   1.110       .  S
C374        H379   1.110       .  S
C374        H380   1.111       .  S
H376       C1955   1.110       .  S
C381        C386   1.401       .  A
C381       C1966   1.402       .  A
C381        H388   1.084       .  S
C382        C383   1.407       .  A
C382       C1965   1.401       .  A
C383        C390   1.504       .  S
C383        C384   1.396       .  A
C384        C385   1.400       .  A
C384        H389   1.084       .  S
C385       C1970   1.408       .  A
C386        C387   1.502       .  S
C386       C1969   1.407       .  A
C387        H391   1.111       .  S
C387        H392   1.109       .  S
C387        H393   1.106       .  S
C390        H394   1.109       .  S
C390        H395   1.111       .  S
C390        H396   1.109       .  S
C397        C398   1.544       .  S
C397        C403   1.537       .  S
C397        C401   1.561       .  S
C397        C486   1.593       .  S
C398        H405   1.085       .  S
C398        C399   1.377       .  D
C399        C400   1.583       .  S
C399        C564   1.538       .  S
C400        C404   1.579       .  S
C400        C402   1.586       .  S
C400        H406   1.110       .  S
C401        H407   1.085       .  S
C401        C402   1.394       .  D
C402        C531   1.561       .  S
C403        H408   1.086       .  S
C403        C404   1.375       .  D
C404        C441   1.533       .  S
C409        C410   1.540       .  S
C409        C415   1.544       .  S
C409        C413   1.532       .  S
C409        C451   1.560       .  S
C410        H417   1.086       .  S
C410        C411   1.372       .  D
C411        C412   1.597       .  S
C411        C496   1.545       .  S
C412        C416   1.607       .  S
C412        C414   1.585       .  S
C412        H418   1.110       .  S
C413        H419   1.087       .  S
C413        C414   1.374       .  D
C414        C600   1.538       .  S
C415        H420   1.086       .  S
C415        C416   1.379       .  D
C416        C541   1.560       .  S
N421        N422   1.321       .  A
N421        N427   1.322       .  A
N421      Mn1242   2.234   1_556  S
N422        C429   1.357       .  A
N423       N2009   1.318       .  A
N423        N424   1.322       .  A
N423       Mn439   2.251       .  S
N424       C2014   1.358       .  A
N425       N2007   1.318       .  A
N425        N426   1.313       .  A
N425       Mn450   2.140   1_556  S
N426        C430   1.339       .  A
N427        N428   1.307       .  A
N427      Mn2815   2.142   1_455  S
N428        C429   1.335       .  A
C429        C730   1.462       .  S
C430       N2008   1.358       .  A
C430        C781   1.457       .  S
N431        N437   1.311       .  A
N431       Mn857   2.177   1_546  S
N433        N434   1.339       .  A
N433        N435   1.315       .  A
N433      Mn1231   2.274       .  S
N434        C441   1.367       .  A
N435        N436   1.325       .  A
N436        C441   1.360       .  A
N437        N438   1.315       .  A
N437       Mn439   2.149       .  S
N438        C440   1.346       .  A
Mn439      N2803   2.142   1_545  S
Mn439      N1225   2.268   1_545  S
Mn439      Cl463   2.529       .  S
C440        C698   1.440       .  S
N442        N443   1.332       .  A
N442        N448   1.315       .  A
N443        C451   1.365       .  A
N444        N445   1.315       .  A
N444       Mn462   2.143       .  S
N445        C452   1.345       .  A
N446        N447   1.315       .  A
N446      Mn1242   2.185       .  S
N448        N449   1.332       .  A
N448      Mn1254   2.248   1_545  S
N449        C451   1.363       .  A
Mn450      N1213   2.227   1_544  S
Mn450      N1238   2.190   1_545  S
Mn450     Cl2047   2.551       .  S
C452        C717   1.447       .  S
N453        N454   1.317       .  A
N453        N459   1.317       .  A
N453       Mn461   2.162       .  S
N454        C464   1.345       .  A
N455        N456   1.308       .  A
N455        N457   1.316       .  A
N455      Mn2838   2.137       .  S
N456        C465   1.339       .  A
N457        N458   1.320       .  A
N457      Mn1253   2.220   1_545  S
N458        C465   1.356       .  A
N459       N2044   1.320       .  A
N459      Mn2046   2.230       .  S
N460       N2043   1.321       .  A
N460       C2048   1.356       .  A
Mn461       N827   2.177       .  S
Mn461      N1249   2.218       .  S
Mn461      Cl859   2.550       .  S
Mn462      N1240   2.263       .  S
Mn462      N2831   2.144   1_455  S
Mn462      N2043   2.240   1_455  S
Mn462     Cl2443   2.530   1_455  S
Cl463     Mn2034   2.554       .  S
Cl463      Mn857   2.551   1_546  S
Cl463     Mn2442   2.526   1_556  S
C464       N2044   1.354       .  A
C464        C762   1.461       .  S
C465        C746   1.463       .  S
N466        N467   1.314   1_554  A
N466        N472   1.322   1_554  A
N467        C474   1.346       .  A
N468        N470   1.327       .  A
N468        N469   1.320       .  A
N468       Mn484   2.227       .  S
N469        C475   1.351       .  A
N470        N471   1.312       .  A
N470       Mn495   2.165       .  S
N471        C475   1.337       .  A
N472        N473   1.316       .  A
N473        C474   1.349       .  A
C474        C701   1.453       .  S
C475        C682   1.473       .  S
N476        N482   1.310       .  A
N476        N477   1.313       .  A
N477        C485   1.345       .  A
N478        N479   1.340       .  A
N478        N480   1.315       .  A
N479        C486   1.370       .  A
N480        N481   1.336       .  A
N480       Mn506   2.268       .  S
N481        C486   1.369       .  A
N482        N483   1.328       .  A
N482       Mn484   2.224       .  S
N483        C485   1.364       .  A
Mn484      Cl508   2.574       .  S
C485        C637   1.480       .  S
N487        N488   1.339       .  A
N487        N493   1.314       .  A
N487       Mn495   2.264       .  S
N488        C496   1.368       .  A
N489        N491   1.310       .  A
N489        N490   1.327       .  A
N489       Mn507   2.217       .  S
N490        C497   1.362       .  A
N491        N492   1.315       .  A
N492        C497   1.347       .  A
N493        N494   1.334       .  A
N494        C496   1.367       .  A
Mn495      Cl508   2.523       .  S
C497        C650   1.480       .  S
N498        N499   1.312       .  A
N498        N504   1.326       .  A
N498       Mn506   2.164       .  S
N499        C509   1.339       .  A
N500        N501   1.314       .  A
N500        N502   1.320       .  A
N501        C510   1.345       .  A
N502        N503   1.316       .  A
N503        C510   1.352       .  A
N504        N505   1.319       .  A
N504       Mn507   2.214       .  S
N505        C509   1.347       .  A
C509        C669   1.469       .  S
C510        C714   1.462       .  S
N511        N512   1.322       .  A
N511        N517   1.315       .  A
N511       Mn540   2.246       .  S
N512        C519   1.365       .  A
N513        N515   1.319       .  A
N513        N514   1.311       .  A
N513       Mn529   2.219       .  S
N514        C520   1.350       .  A
N515        N516   1.320       .  A
N515       Mn540   2.147       .  S
N516        C520   1.345       .  A
N517        N518   1.305       .  A
N517       Mn529   2.132       .  S
N518        C519   1.338       .  A
C519        C605   1.459       .  S
C520        C685   1.447       .  S
N521       N2111   1.311       .  A
N521        N522   1.309       .  A
N521       Mn551   2.164       .  S
N522       C2114   1.346       .  A
N523        N524   1.331       .  A
N523        N525   1.314       .  A
N523       Mn529   2.250       .  S
N524        C531   1.360       .  A
N525        N526   1.346       .  A
N525      Mn2135   2.320       .  S
N526        C531   1.379       .  A
N527       N2105   1.311       .  A
N527        N528   1.324       .  A
N527       Mn529   2.186       .  S
N528        C530   1.354       .  A
Mn529     Cl2137   2.507       .  S
C530       N2106   1.344       .  A
C530        C765   1.452       .  S
N532        N533   1.335       .  A
N532        N538   1.315       .  A
N532      Mn2124   2.295       .  S
N533        C541   1.372       .  A
N534       N2120   1.311       .  A
N534        N535   1.323       .  A
N534       Mn552   2.180       .  S
N535        C542   1.353       .  A
N536       N2118   1.310       .  A
N536        N537   1.308       .  A
N536       Mn540   2.156       .  S
N537       C2126   1.345       .  A
N538        N539   1.341       .  A
N538       Mn552   2.276       .  S
N539        C541   1.367       .  A
Mn540      N2116   2.297       .  S
Mn540     Cl2137   2.573       .  S
C542       N2121   1.345       .  A
C542        C778   1.449       .  S
N543        N544   1.320       .  A
N543        N549   1.322       .  A
N543       Mn551   2.159   1_455  S
N544        C554   1.345       .  A
N545        N546   1.305       .  A
N545        N547   1.319       .  A
N545       Mn552   2.132       .  S
N546        C555   1.338       .  A
N547        N548   1.325       .  A
N547       Mn551   2.271   1_455  S
N548        C555   1.367       .  A
N549        N550   1.310       .  A
N549       Mn552   2.222       .  S
N550        C554   1.348       .  A
Mn551      N2109   2.327       .  S
Mn551      Cl553   2.587   1_655  S
Mn552      Cl553   2.517       .  S
Cl553     Mn2113   2.503   1_455  S
Cl553     Mn2124   2.580       .  S
C554        C666   1.447       .  S
C555        C621   1.473       .  S
N556        N557   1.330       .  A
N556        N562   1.320       .  A
N556       Mn585   2.268       .  S
N557        C564   1.363       .  A
N558        N560   1.313   1_545  A
N558        N559   1.316       .  A
N558       Mn574   2.164       .  S
N559        C565   1.344       .  A
N560        N561   1.328       .  A
N560      Mn1377   2.226       .  S
N561        C565   1.357   1_565  A
N562        N563   1.338       .  A
N562      Mn1366   2.260       .  S
N563        C564   1.363       .  A
C565        C653   1.481       .  S
N566        N572   1.322       .  A
N566        N567   1.322       .  A
N566       Mn596   2.211       .  S
N567        C575   1.359       .  A
N568        N569   1.327       .  A
N568        N570   1.320       .  A
N568      Mn1366   2.208       .  S
N569        C576   1.357       .  A
N570        N571   1.303       .  A
N570      Mn1388   2.164       .  S
N571        C576   1.335       .  A
N572        N573   1.310       .  A
N572       Mn574   2.200       .  S
N573        C575   1.340       .  A
Mn574      N1354   2.252   1_545  S
Mn574      N1360   2.189       .  S
Mn574      Cl598   2.518       .  S
C575        C602   1.461       .  S
C576        C749   1.446       .  S
N577        N578   1.304       .  A
N577        N583   1.316       .  A
N577      Mn1377   2.148       .  S
N578        C586   1.337       .  A
N579        N581   1.319       .  A
N579        N580   1.309       .  A
N579       Mn597   2.179       .  S
N580        C587   1.333       .  A
N581        N582   1.328       .  A
N581       Mn585   2.233       .  S
N582        C587   1.364       .  A
N583        N584   1.325   1_565  A
N583      Mn1389   2.200   1_565  S
N584        C586   1.354   1_545  A
Mn585      N1352   2.225       .  S
Mn585      N1369   2.149       .  S
Mn585     Cl1390   2.563       .  S
C586        C733   1.442       .  S
C587        C618   1.468       .  S
N588        N589   1.328       .  A
N588        N594   1.311       .  A
N588      Mn1388   2.218       .  S
N589        C599   1.357       .  A
N590        N591   1.323       .  A
N590        N592   1.313       .  A
N590      Mn1389   2.213       .  S
N591        C600   1.356       .  A
N592        N593   1.344       .  A
N592       Mn596   2.291       .  S
N593        C600   1.372       .  A
N594        N595   1.315       .  A
N594       Mn597   2.164       .  S
N595        C599   1.343       .  A
Mn596      N1362   2.175       .  S
Mn596      N1380   2.223       .  S
Mn596      Cl598   2.568       .  S
Mn597      N1375   2.192       .  S
Mn597      N1382   2.210       .  S
Mn597     Cl1390   2.504       .  S
Cl598     Mn1377   2.567   1_545  S
Cl598     Mn1389   2.502       .  S
C599        C634   1.476       .  S
C601        C602   1.403       .  A
C601        C606   1.406       .  A
C601        H608   1.082       .  S
C602        C603   1.414       .  A
C603        C610   1.506       .  S
C603        C604   1.387       .  A
C604        C605   1.398       .  A
C604        H609   1.084       .  S
C605        C606   1.416       .  A
C606        C607   1.504       .  S
C607        H611   1.110       .  S
C607        H612   1.109       .  S
C607        H613   1.107       .  S
C610        H614   1.110       .  S
C610        H615   1.102       .  S
C610        H616   1.108       .  S
C617        C618   1.395       .  A
C617        C622   1.403       .  A
C617        H624   1.084       .  S
C618        C619   1.422       .  A
C619        C626   1.506       .  S
C619        C620   1.394       .  A
C620        C621   1.394       .  A
C620        H625   1.083       .  S
C621        C622   1.424       .  A
C622        C623   1.505       .  S
C623        H627   1.109       .  S
C623        H628   1.110       .  S
C623        H629   1.111       .  S
C626        H630   1.108       .  S
C626        H631   1.109       .  S
C626        H632   1.111       .  S
C633        C634   1.406       .  A
C633        C638   1.406       .  A
C633        H640   1.087       .  S
C634        C635   1.406       .  A
C635        C642   1.505       .  S
C635        C636   1.405       .  A
C636        C637   1.408       .  A
C636        H641   1.086       .  S
C637        C638   1.411       .  A
C638        C639   1.506       .  S
C639        H643   1.111       .  S
C639        H644   1.107       .  S
C639        H645   1.110       .  S
C642        H646   1.110       .  S
C642        H647   1.110       .  S
C642        H648   1.111       .  S
C649        C650   1.410       .  A
C649        C654   1.410       .  A
C649        H656   1.073       .  S
C650        C651   1.410       .  A
C651        C658   1.508       .  S
C651        C652   1.406       .  A
C652        C653   1.408       .  A
C652        H657   1.079       .  S
C653        C654   1.406       .  A
C654        C655   1.505       .  S
C655        H659   1.109       .  S
C655        H660   1.111       .  S
C655        H661   1.111   1_545  S
C658        H662   1.110       .  S
C658        H663   1.110       .  S
C658        H664   1.110       .  S
C665        C666   1.396       .  A
C665        C670   1.401       .  A
C665        H672   1.085       .  S
C666        C667   1.401       .  A
C667        C674   1.504       .  S
C667        C668   1.393       .  A
C668        C669   1.406       .  A
C668        H673   1.084       .  S
C669        C670   1.423       .  A
C670        C671   1.508       .  S
C671        H675   1.111       .  S
C671        H676   1.111       .  S
C671        H677   1.108       .  S
C674        H678   1.107       .  S
C674        H679   1.110       .  S
C674        H680   1.111       .  S
C681        C682   1.408       .  A
C681        C686   1.397       .  A
C681        H688   1.083       .  S
C682        C683   1.422       .  A
C683        C690   1.508       .  S
C683        C684   1.401       .  A
C684        C685   1.396       .  A
C684        H689   1.085       .  S
C685        C686   1.400       .  A
C686        C687   1.505       .  S
C687        H691   1.110       .  S
C687        H692   1.110       .  S
C687        H693   1.110       .  S
C690        H694   1.110       .  S
C690        H695   1.110       .  S
C690        H696   1.111       .  S
C697        C698   1.396       .  A
C697        C702   1.394       .  A
C697        H704   1.083       .  S
C698        C699   1.404       .  A
C699        C700   1.391       .  A
C700        C701   1.400       .  A
C700        H705   1.079       .  S
C701        C702   1.413       .  A
C702        C703   1.508       .  S
C703        H707   1.109       .  S
C703        H708   1.108       .  S
C703        H709   1.111       .  S
C706        H710   1.108       .  S
C706        H712   1.111       .  S
C713        C714   1.403       .  A
C713        C718   1.392       .  A
C713        H720   1.084       .  S
C714        C715   1.418       .  A
C716        H721   1.085       .  S
C717        C718   1.403       .  A
C718        C719   1.507       .  S
C719        H723   1.111       .  S
C719        H724   1.111       .  S
C719        H725   1.109       .  S
C722        H726   1.109       .  S
C722        H727   1.110       .  S
C722        H728   1.111       .  S
C729       C1522   1.402   1_545  A
C729        C734   1.394       .  A
C729        H736   1.084       .  S
C730       C1521   1.402       .  A
C730        C731   1.417       .  A
C731        C738   1.506       .  S
C731        C732   1.398       .  A
C732       C1525   1.395       .  A
C732        H737   1.084       .  S
C733       C1524   1.396       .  A
C733        C734   1.407   1_565  A
C734        C735   1.506       .  S
C735        H739   1.111       .  S
C735        H740   1.108       .  S
C735        H741   1.108       .  S
C738        H742   1.109       .  S
C738        H743   1.108       .  S
C738        H744   1.110       .  S
C745        C746   1.406       .  A
C745        C750   1.398       .  A
C745        H752   1.085       .  S
C746       C1539   1.419       .  A
C747        C754   1.509       .  S
C747       C1538   1.417       .  A
C747        C748   1.395       .  A
C748        C749   1.400       .  A
C748        H753   1.087       .  S
C749       C1542   1.404       .  A
C750        C751   1.505       .  S
C750       C1541   1.403       .  A
C751        H755   1.111       .  S
C751        H756   1.111       .  S
C751        H757   1.106       .  S
C754        H758   1.108       .  S
C754        H759   1.110       .  S
C754        H760   1.109       .  S
C761        C762   1.398       .  A
C761        C766   1.399       .  A
C761        H768   1.084       .  S
C762        C763   1.412       .  A
C763        C770   1.505       .  S
C763        C764   1.398       .  A
C764        C765   1.396       .  A
C764        H769   1.083       .  S
C765        C766   1.411       .  A
C766       C2351   1.508       .  S
C767       C2350   1.508       .  S
C767        H771   1.111   1_655  S
C767       H2356   1.110       .  S
C767        H773   1.109       .  S
C770        H774   1.110       .  S
C770        H775   1.109       .  S
C770        H776   1.108       .  S
H772       C2351   1.110       .  S
C777       C2362   1.403       .  A
C777        C782   1.402       .  A
C777        H784   1.085       .  S
C778       C2361   1.402       .  A
C778        C779   1.408       .  A
C779        C786   1.505       .  S
C779        C780   1.394       .  A
C780        C781   1.399       .  A
C780        H785   1.086       .  S
C781       C2366   1.407       .  A
C782        C783   1.504       .  S
C782       C2365   1.407       .  A
C783        H787   1.111       .  S
C783        H788   1.111       .  S
C783        H789   1.108       .  S
C786        H790   1.108       .  S
C786        H791   1.110       .  S
C786        H792   1.110       .  S
C793        C794   1.543       .  S
C793        C799   1.536       .  S
C793        C797   1.562       .  S
C793        C882   1.590       .  S
C794        H801   1.086       .  S
C794        C795   1.375       .  D
C795        C796   1.586       .  S
C795        C960   1.538       .  S
C796        C800   1.580       .  S
C796        C798   1.589       .  S
C796        H802   1.110       .  S
C797        H803   1.085       .  S
C797        C798   1.394       .  D
C798        C927   1.566       .  S
C799        H804   1.086       .  S
C799        C800   1.373       .  D
C800        C837   1.533       .  S
C805        C806   1.540       .  S
C805        C811   1.540       .  S
C805        C809   1.529       .  S
C805        C847   1.554       .  S
C806        H813   1.086       .  S
C806        C807   1.372       .  D
C807        C808   1.598       .  S
C807        C892   1.547       .  S
C808        C812   1.604       .  S
C808        C810   1.583       .  S
C808        H814   1.110       .  S
C809        H815   1.087       .  S
C809        C810   1.372       .  D
C810        C996   1.533       .  S
C811        H816   1.086       .  S
C811        C812   1.378       .  D
C812        C937   1.554       .  S
N817        N818   1.321       .  A
N817        N823   1.322       .  A
N818        C825   1.358       .  A
N819       N2405   1.319       .  A
N819        N820   1.323       .  A
N819       Mn835   2.259       .  S
N820       C2410   1.358       .  A
N821       N2403   1.319       .  A
N821        N822   1.314       .  A
N821       Mn846   2.142       .  S
N822        C826   1.340       .  A
N823        N824   1.307       .  A
N823      Mn1627   2.143   1_465  S
N824        C825   1.335       .  A
C825       C1126   1.462       .  S
C826       N2404   1.358       .  A
C826       C1177   1.457       .  S
N827        N833   1.311       .  A
N827       N1224   1.312       .  A
N828       N1223   1.312       .  A
N828       C1232   1.350       .  A
N829        N830   1.339       .  A
N829        N831   1.315       .  A
N830        C837   1.367       .  A
N831        N832   1.325       .  A
N831      Mn1253   2.239       .  S
N832        C837   1.360       .  A
N833        N834   1.317       .  A
N833       Mn835   2.156       .  S
N834        C836   1.348       .  A
Mn835      N1615   2.145       .  S
Mn835      Cl859   2.529       .  S
C836       N1224   1.350       .  A
C836       C1094   1.445       .  S
N838        N839   1.329       .  A
N838        N844   1.314       .  A
N838      Mn1242   2.244       .  S
N839        C847   1.361       .  A
N840       N1238   1.311       .  A
N840        N841   1.316       .  A
N840       Mn858   2.151   1_565  S
N841        C848   1.346       .  A
N842       N1236   1.310       .  A
N842        N843   1.316       .  A
N843       C1244   1.355       .  A
N844        N845   1.332       .  A
N845        C847   1.364       .  A
Mn846      N1234   2.247       .  S
Mn846     Cl2443   2.550   1_455  S
C848       N1239   1.354       .  A
C848       C1113   1.450       .  S
N849        N850   1.316       .  A
N849        N855   1.318       .  A
N849       Mn857   2.155       .  S
N850        C860   1.345       .  A
N851        N852   1.309       .  A
N851        N853   1.317       .  A
N851      Mn1650   2.147       .  S
N852        C861   1.341       .  A
N853        N854   1.319       .  A
N854        C861   1.355       .  A
N855       N2440   1.320       .  A
N855      Mn2442   2.232   1_565  S
N856       N2439   1.320       .  A
N856       C2444   1.355       .  A
Mn857      N1227   2.242   1_554  S
Mn858      N1643   2.143   1_455  S
Mn858      N2439   2.229   1_445  S
Mn858     Cl2047   2.531       .  S
Cl859     Mn2430   2.555       .  S
Cl859     Mn2046   2.527       .  S
C860       N2440   1.355       .  A
C860       C1158   1.462       .  S
C861       C1142   1.463       .  S
N862        N863   1.315       .  A
N862        N868   1.322       .  A
N862      Mn1287   2.217       .  S
N863        C870   1.347       .  A
N864        N866   1.326       .  A
N864        N865   1.318       .  A
N864       Mn880   2.223       .  S
N865        C871   1.351       .  A
N866        N867   1.313       .  A
N866       Mn891   2.164       .  S
N867        C871   1.339       .  A
N868        N869   1.317       .  A
N868      Mn1276   2.181       .  S
N869        C870   1.350       .  A
C870       C1097   1.459       .  S
C871       C1078   1.471       .  S
N872        N878   1.311       .  A
N872        N873   1.315       .  A
N872      Mn1298   2.178   1_554  S
N873        C881   1.347       .  A
N874        N875   1.340       .  A
N874        N876   1.314       .  A
N874      Mn1276   2.296       .  S
N875        C882   1.370       .  A
N876        N877   1.335       .  A
N876       Mn902   2.262       .  S
N877        C882   1.368       .  A
N878        N879   1.331       .  A
N878       Mn880   2.237       .  S
N879        C881   1.366       .  A
Mn880      N1264   2.182   1_554  S
Mn880      N1270   2.293   1_554  S
Mn880      Cl904   2.573       .  S
C881       C1033   1.489       .  S
N883        N884   1.339       .  A
N883        N889   1.315       .  A
N883       Mn891   2.270       .  S
N884        C892   1.369       .  A
N885        N887   1.311       .  A
N885        N886   1.327       .  A
N885       Mn903   2.217       .  S
N886        C893   1.361       .  A
N887        N888   1.315       .  A
N887      Mn1287   2.178       .  S
N888        C893   1.346       .  A
N889        N890   1.333       .  A
N889      Mn1299   2.283   1_554  S
N890        C892   1.367       .  A
Mn891      N1258   2.211       .  S
Mn891      N1283   2.176   1_554  S
Mn891      Cl904   2.526       .  S
C893       C1046   1.476       .  S
N894        N895   1.311       .  A
N894        N900   1.325       .  A
N894       Mn902   2.154       .  S
N895        C905   1.337       .  A
N896        N897   1.317       .  A
N896        N898   1.320       .  A
N896      Mn1299   2.170   1_554  S
N897        C906   1.348       .  A
N898        N899   1.314       .  A
N898      Mn1298   2.212   1_554  S
N899        C906   1.349       .  A
N900        N901   1.319       .  A
N900       Mn903   2.218       .  S
N901        C905   1.348       .  A
Mn902      N1268   2.166       .  S
Mn902      N1294   2.211       .  S
Mn902     Cl1300   2.520       .  S
Mn903      N1285   2.278       .  S
Mn903      N1292   2.166       .  S
Mn903     Cl1300   2.573       .  S
Cl904     Mn1298   2.521   1_554  S
Cl904     Mn1299   2.571   1_554  S
C905       C1065   1.465       .  S
C906       C1110   1.463       .  S
N907        N908   1.324       .  A
N907        N913   1.316       .  A
N907       Mn936   2.254       .  S
N908        C915   1.366       .  A
N909        N911   1.318       .  A
N909        N910   1.311       .  A
N909       Mn925   2.218       .  S
N910        C916   1.349       .  A
N911        N912   1.321       .  A
N911       Mn936   2.146       .  S
N912        C916   1.345       .  A
N913        N914   1.305       .  A
N913       Mn925   2.131       .  S
N914        C915   1.337       .  A
C915       C1001   1.459       .  S
C916       C1081   1.448       .  S
N917       N2507   1.312       .  A
N917        N918   1.308       .  A
N917       Mn947   2.156       .  S
N918       C2510   1.343       .  A
N919        N920   1.332       .  A
N919        N921   1.314       .  A
N919       Mn925   2.252       .  S
N920        C927   1.361       .  A
N921        N922   1.347       .  A
N921      Mn2531   2.329       .  S
N922        C927   1.380       .  A
N923       N2501   1.311       .  A
N923        N924   1.323       .  A
N923       Mn925   2.177       .  S
N924        C926   1.351       .  A
Mn925     Cl2533   2.509       .  S
C926       N2502   1.346       .  A
C926       C1161   1.452       .  S
N928        N929   1.333       .  A
N928        N934   1.315       .  A
N928      Mn2520   2.284       .  S
N929        C937   1.370       .  A
N930       N2516   1.310       .  A
N930        N931   1.323       .  A
N930       Mn948   2.179       .  S
N931        C938   1.353       .  A
N932       N2514   1.311       .  A
N932        N933   1.308       .  A
N932       Mn936   2.161       .  S
N933       C2522   1.345       .  A
N934        N935   1.341       .  A
N934       Mn948   2.277       .  S
N935        C937   1.367       .  A
Mn936      N2512   2.296       .  S
Mn936     Cl2533   2.576       .  S
C938       N2517   1.345       .  A
C938       C1174   1.449       .  S
N939        N940   1.319       .  A
N939        N945   1.322       .  A
N939       Mn947   2.154   1_455  S
N940        C950   1.345       .  A
N941        N942   1.306       .  A
N941        N943   1.319       .  A
N941       Mn948   2.134       .  S
N942        C951   1.339       .  A
N943        N944   1.324       .  A
N943       Mn947   2.266   1_455  S
N944        C951   1.366       .  A
N945        N946   1.310       .  A
N945       Mn948   2.222       .  S
N946        C950   1.348       .  A
Mn947      N2505   2.320       .  S
Mn947      Cl949   2.583   1_655  S
Mn948      Cl949   2.517       .  S
Cl949     Mn2509   2.504   1_455  S
Cl949     Mn2520   2.576       .  S
C950       C1062   1.447       .  S
C951       C1017   1.471       .  S
N952        N953   1.330       .  A
N952        N958   1.318       .  A
N952       Mn981   2.269       .  S
N953        C960   1.365       .  A
N954        N956   1.313       .  A
N954        N955   1.316       .  A
N954       Mn970   2.169       .  S
N955        C961   1.346       .  A
N956        N957   1.328       .  A
N957        C961   1.356       .  A
N958        N959   1.337       .  A
N959        C960   1.362       .  A
C961       C1049   1.481       .  S
N962        N968   1.322       .  A
N962        N963   1.321       .  A
N962       Mn992   2.207       .  S
N963        C971   1.358       .  A
N964        N965   1.325       .  A
N964        N966   1.320       .  A
N965        C972   1.355       .  A
N966        N967   1.304       .  A
N967        C972   1.337       .  A
N968        N969   1.311       .  A
N968       Mn970   2.203       .  S
N969        C971   1.341       .  A
Mn970      Cl994   2.525       .  S
C971        C998   1.461       .  S
C972       C1145   1.442       .  S
N973        N974   1.304       .  A
N973        N979   1.317       .  A
N974        C982   1.337       .  A
N975        N977   1.319       .  A
N975        N976   1.309       .  A
N975       Mn993   2.182   1_565  S
N976        C983   1.335       .  A
N977        N978   1.327       .  A
N977       Mn981   2.231       .  S
N978        C983   1.364       .  A
N979        N980   1.324       .  A
N980        C982   1.353       .  A
C982       C1129   1.440       .  S
C983       C1014   1.468       .  S
N984        N985   1.330       .  A
N984        N990   1.312       .  A
N985        C995   1.361   1_545  A
N986        N987   1.322       .  A
N986        N988   1.312       .  A
N987        C996   1.356       .  A
N988        N989   1.342       .  A
N988       Mn992   2.274       .  S
N989        C996   1.369       .  A
N990        N991   1.316   1_545  A
N990       Mn993   2.166       .  S
N991        C995   1.344       .  A
Mn992      Cl994   2.564       .  S
C995       C1030   1.484       .  S
C997        C998   1.403       .  A
C997       C1002   1.406       .  A
C997       H1004   1.083       .  S
C998        C999   1.414       .  A
C999       C1006   1.506       .  S
C999       C1000   1.388       .  A
C1000      C1001   1.399       .  A
C1000      H1005   1.084       .  S
C1001      C1002   1.416       .  A
C1002      C1003   1.504       .  S
C1003      H1007   1.110       .  S
C1003      H1008   1.109       .  S
C1003      H1009   1.106       .  S
C1006      H1010   1.110       .  S
C1006      H1011   1.104       .  S
C1006      H1012   1.108       .  S
C1013      C1014   1.397       .  A
C1013      C1018   1.404       .  A
C1013      H1020   1.084       .  S
C1014      C1015   1.421       .  A
C1015      C1022   1.504       .  S
C1015      C1016   1.392       .  A
C1016      C1017   1.393       .  A
C1016      H1021   1.083       .  S
C1017      C1018   1.422       .  A
C1018      C1019   1.505       .  S
C1019      H1023   1.108       .  S
C1019      H1024   1.110       .  S
C1019      H1025   1.110       .  S
C1022      H1026   1.107       .  S
C1022      H1027   1.109       .  S
C1022      H1028   1.110       .  S
C1029      C1030   1.407       .  A
C1029      C1034   1.409       .  A
C1029      H1036   1.087       .  S
C1030      C1031   1.408       .  A
C1031      C1038   1.505       .  S
C1031      C1032   1.410       .  A
C1032      C1033   1.409       .  A
C1032      H1037   1.085       .  S
C1033      C1034   1.412       .  A
C1034      C1035   1.506       .  S
C1035      H1039   1.111       .  S
C1035      H1040   1.109       .  S
C1035      H1041   1.110       .  S
C1038      H1042   1.110   1_565  S
C1038      H1043   1.110   1_565  S
C1038      H1044   1.111       .  S
C1045      C1046   1.409       .  A
C1045      C1050   1.410       .  A
C1045      H1052   1.076       .  S
C1046      C1047   1.408       .  A
C1047      C1054   1.507       .  S
C1047      C1048   1.404       .  A
C1048      C1049   1.408       .  A
C1048      H1053   1.080       .  S
C1049      C1050   1.408       .  A
C1050      C1051   1.504       .  S
C1051      H1055   1.110       .  S
C1051      H1056   1.111       .  S
C1051      H1057   1.111       .  S
C1054      H1058   1.110       .  S
C1054      H1059   1.110       .  S
C1054      H1060   1.111       .  S
C1061      C1062   1.395       .  A
C1061      C1066   1.401       .  A
C1061      H1068   1.084       .  S
C1062      C1063   1.401       .  A
C1063      C1070   1.505       .  S
C1063      C1064   1.394       .  A
C1064      C1065   1.405       .  A
C1064      H1069   1.084       .  S
C1065      C1066   1.421       .  A
C1066      C1067   1.508       .  S
C1067      H1071   1.111       .  S
C1067      H1072   1.111       .  S
C1067      H1073   1.109       .  S
C1070      H1074   1.109       .  S
C1070      H1075   1.110       .  S
C1070      H1076   1.111       .  S
C1077      C1078   1.408       .  A
C1077      C1082   1.395       .  A
C1077      H1084   1.083       .  S
C1078      C1079   1.420       .  A
C1079      C1086   1.508       .  S
C1079      C1080   1.402       .  A
C1080      C1081   1.397       .  A
C1080      H1085   1.082       .  S
C1081      C1082   1.400       .  A
C1082      C1083   1.504       .  S
C1083      H1087   1.111       .  S
C1083      H1088   1.110       .  S
C1083      H1089   1.110       .  S
C1086      H1090   1.109       .  S
C1086      H1091   1.110       .  S
C1086      H1092   1.110       .  S
C1093      C1094   1.397       .  A
C1093      C1098   1.396       .  A
C1093      H1100   1.083       .  S
C1094      C1095   1.405       .  A
C1095      C1498   1.507       .  S
C1095      C1096   1.394       .  A
C1096      C1097   1.401       .  A
C1096      H1101   1.078       .  S
C1097      C1098   1.413       .  A
C1098      C1099   1.508       .  S
C1099      H1103   1.110       .  S
C1099      H1104   1.108       .  S
C1099      H1105   1.111       .  S
C1102      C1491   1.505       .  S
C1102      H1106   1.111       .  S
C1102      H1503   1.110       .  S
C1102      H1108   1.110       .  S
H1107      C1498   1.110       .  S
C1109      C1110   1.404       .  A
C1109      C1114   1.392       .  A
C1109      H1116   1.085       .  S
C1110      C1111   1.415       .  A
C1111      C1514   1.508       .  S
C1111      C1508   1.396       .  A
C1112      C1507   1.395       .  A
C1112      C1509   1.398       .  A
C1112      H1117   1.085       .  S
C1113      C1508   1.398       .  A
C1113      C1114   1.404       .  A
C1114      C1115   1.507       .  S
C1115      H1119   1.111       .  S
C1115      H1120   1.110       .  S
C1115      H1121   1.109       .  S
C1118      C1507   1.509       .  S
C1118      H1122   1.108       .  S
C1118      H1123   1.110       .  S
C1118      H1124   1.111       .  S
C1125      C1130   1.393       .  A
C1125      H1132   1.083       .  S
C1126      C1127   1.417       .  A
C1127      C1134   1.507       .  S
C1127      C1128   1.398       .  A
C1128      H1133   1.085       .  S
C1129      C1130   1.406       .  A
C1130      C1131   1.506       .  S
C1131      H1135   1.111       .  S
C1131      H1136   1.108       .  S
C1131      H1137   1.108       .  S
C1134      H1138   1.109       .  S
C1134      H1139   1.107       .  S
C1134      H1140   1.111       .  S
C1141      C1142   1.406       .  A
C1141      C1146   1.398       .  A
C1141      H1148   1.084       .  S
C1143      C1150   1.507   1_545  S
C1143      C1144   1.395       .  A
C1144      C1145   1.398       .  A
C1144      H1149   1.087   1_545  S
C1146      C1147   1.506       .  S
C1147      H1151   1.111       .  S
C1147      H1152   1.110       .  S
C1147      H1153   1.107       .  S
C1150      H1154   1.108       .  S
C1150      H1155   1.109   1_565  S
C1150      H1156   1.111       .  S
C1157      C1158   1.397       .  A
C1157      C1162   1.398       .  A
C1157      H1164   1.085       .  S
C1158      C1159   1.413       .  A
C1159      C1166   1.503       .  S
C1159      C1160   1.398       .  A
C1160      C1161   1.395       .  A
C1160      H1165   1.084       .  S
C1161      C1162   1.411       .  A
C1162      C2747   1.508       .  S
C1163      C2746   1.510       .  S
C1163      H1167   1.111   1_655  S
C1163      H2752   1.110       .  S
C1163      H1169   1.109   1_655  S
C1166      H1170   1.110       .  S
C1166      H1171   1.106       .  S
C1166      H1172   1.107       .  S
H1168      C2747   1.110       .  S
C1173      C2758   1.402       .  A
C1173      C1178   1.401       .  A
C1173      H1180   1.084       .  S
C1174      C2757   1.402       .  A
C1174      C1175   1.408       .  A
C1175      C1182   1.505       .  S
C1175      C1176   1.394       .  A
C1176      C1177   1.398       .  A
C1176      H1181   1.085       .  S
C1177      C2762   1.407       .  A
C1178      C1179   1.504       .  S
C1178      C2761   1.406       .  A
C1179      H1183   1.111       .  S
C1179      H1184   1.110       .  S
C1179      H1185   1.108       .  S
C1182      H1186   1.108       .  S
C1182      H1187   1.111       .  S
C1182      H1188   1.110       .  S
C1189      C1190   1.543       .  S
C1189      C1195   1.535       .  S
C1189      C1193   1.564       .  S
C1189      C1278   1.591       .  S
C1190      H1197   1.086       .  S
C1190      C1191   1.375       .  D
C1191      C1192   1.586       .  S
C1191      C1356   1.537       .  S
C1192      C1196   1.579       .  S
C1192      C1194   1.587       .  S
C1192      H1198   1.110       .  S
C1193      H1199   1.085       .  S
C1193      C1194   1.396       .  D
C1194      C1323   1.565       .  S
C1195      H1200   1.086       .  S
C1195      C1196   1.373       .  D
C1196      C1233   1.531       .  S
C1201      C1202   1.542       .  S
C1201      C1207   1.541       .  S
C1201      C1205   1.533       .  S
C1201      C1243   1.560       .  S
C1202      H1209   1.086       .  S
C1202      C1203   1.372       .  D
C1203      C1204   1.599       .  S
C1203      C1288   1.550       .  S
C1204      C1208   1.607       .  S
C1204      C1206   1.580       .  S
C1204      H1210   1.110       .  S
C1205      H1211   1.087       .  S
C1205      C1206   1.375       .  D
C1206      C1392   1.532       .  S
C1207      H1212   1.086       .  S
C1207      C1208   1.378       .  D
C1208      C1333   1.559       .  S
N1213      N1214   1.321       .  A
N1213      N1219   1.321       .  A
N1214      C1221   1.356       .  A
N1215      N2801   1.319       .  A
N1215      N1216   1.323       .  A
N1215     Mn1231   2.257       .  S
N1216      C2806   1.358       .  A
N1217      N2799   1.318       .  A
N1217      N1218   1.314       .  A
N1217     Mn1242   2.134   1_556  S
N1218      C1222   1.339       .  A
N1219      N1220   1.308       .  A
N1219     Mn2023   2.147   1_465  S
N1220      C1221   1.336       .  A
C1221      C1522   1.461       .  S
C1222      N2800   1.358       .  A
C1222      C1573   1.457       .  S
N1223      N1229   1.310       .  A
N1225      N1226   1.339       .  A
N1225      N1227   1.315       .  A
N1226      C1233   1.367       .  A
N1227      N1228   1.325       .  A
N1228      C1233   1.360       .  A
N1229      N1230   1.317       .  A
N1229     Mn1231   2.154       .  S
N1230      C1232   1.348       .  A
Mn1231     N2011   2.141       .  S
Mn1231    Cl1255   2.530   1_556  S
C1232      C1490   1.445       .  S
N1234      N1235   1.330       .  A
N1234      N1240   1.315       .  A
N1235      C1243   1.362       .  A
N1236      N1237   1.314       .  A
N1236     Mn1254   2.142       .  S
N1237      C1244   1.344       .  A
N1238      N1239   1.316       .  A
N1240      N1241   1.333       .  A
N1241      C1243   1.366       .  A
Mn1242    Cl2839   2.549       .  S
C1244      C1509   1.447       .  S
N1245      N1246   1.316       .  A
N1245      N1251   1.317       .  A
N1245     Mn1253   2.152       .  S
N1246      C1256   1.345       .  A
N1247      N1248   1.308       .  A
N1247      N1249   1.316       .  A
N1247     Mn2046   2.141       .  S
N1248      C1257   1.340       .  A
N1249      N1250   1.320       .  A
N1250      C1257   1.356       .  A
N1251      N2836   1.320       .  A
N1251     Mn2838   2.231   1_565  S
N1252      N2835   1.320       .  A
N1252      C2840   1.355       .  A
Mn1254     N2039   2.138   1_465  S
Mn1254     N2835   2.232   1_455  S
Mn1254    Cl1651   2.530   1_565  S
Cl1255    Mn2826   2.553       .  S
Cl1255    Mn1650   2.531       .  S
C1256      N2836   1.355       .  A
C1256      C1554   1.463       .  S
C1257      C1538   1.464       .  S
N1258      N1259   1.315   1_554  A
N1258      N1264   1.322   1_554  A
N1259      C1266   1.347       .  A
N1260      N1262   1.326       .  A
N1260      N1261   1.320       .  A
N1260     Mn1276   2.230       .  S
N1261      C1267   1.352       .  A
N1262      N1263   1.312       .  A
N1262     Mn1287   2.165       .  S
N1263      C1267   1.338       .  A
N1264      N1265   1.317       .  A
N1265      C1266   1.350       .  A
C1266      C1493   1.458       .  S
C1267      C1474   1.471       .  S
N1268      N1274   1.311       .  A
N1268      N1269   1.314       .  A
N1269      C1277   1.344       .  A
N1270      N1271   1.340       .  A
N1270      N1272   1.313       .  A
N1271      C1278   1.371       .  A
N1272      N1273   1.335       .  A
N1272     Mn1298   2.264       .  S
N1273      C1278   1.368       .  A
N1274      N1275   1.329       .  A
N1274     Mn1276   2.235       .  S
N1275      C1277   1.366       .  A
Mn1276    Cl1300   2.575       .  S
C1277      C1429   1.484       .  S
N1279      N1280   1.341       .  A
N1279      N1285   1.314       .  A
N1279     Mn1287   2.279       .  S
N1280      C1288   1.371       .  A
N1281      N1283   1.310       .  A
N1281      N1282   1.328       .  A
N1281     Mn1299   2.218       .  S
N1282      C1289   1.363       .  A
N1283      N1284   1.315       .  A
N1284      C1289   1.346       .  A
N1285      N1286   1.333       .  A
N1286      C1288   1.366       .  A
Mn1287    Cl1300   2.526       .  S
C1289      C1442   1.478       .  S
N1290      N1291   1.311       .  A
N1290      N1296   1.325       .  A
N1290     Mn1298   2.156       .  S
N1291      C1301   1.338       .  A
N1292      N1293   1.317       .  A
N1292      N1294   1.320       .  A
N1293      C1302   1.348       .  A
N1294      N1295   1.313       .  A
N1295      C1302   1.349       .  A
N1296      N1297   1.318       .  A
N1296     Mn1299   2.222       .  S
N1297      C1301   1.349       .  A
C1301      C1461   1.465       .  S
C1302      C1506   1.461       .  S
N1303      N1304   1.323       .  A
N1303      N1309   1.316       .  A
N1303     Mn1332   2.251       .  S
N1304      C1311   1.366       .  A
N1305      N1307   1.318       .  A
N1305      N1306   1.310       .  A
N1305     Mn1321   2.215       .  S
N1306      C1312   1.349       .  A
N1307      N1308   1.320       .  A
N1307     Mn1332   2.143       .  S
N1308      C1312   1.345       .  A
N1309      N1310   1.304       .  A
N1309     Mn1321   2.129       .  S
N1310      C1311   1.336       .  A
C1311      C1397   1.459       .  S
C1312      C1477   1.446       .  S
N1313      N2903   1.311       .  A
N1313      N1314   1.309       .  A
N1313     Mn1343   2.155   1_655  S
N1314      C2906   1.344       .  A
N1315      N1316   1.331       .  A
N1315      N1317   1.313       .  A
N1315     Mn1321   2.244       .  S
N1316      C1323   1.359       .  A
N1317      N1318   1.347       .  A
N1317     Mn2927   2.328       .  S
N1318      C1323   1.380       .  A
N1319      N2897   1.311       .  A
N1319      N1320   1.324       .  A
N1319     Mn1321   2.186       .  S
N1320      C1322   1.353       .  A
Mn1321    Cl2929   2.502       .  S
C1322      N2898   1.345       .  A
C1322      C1557   1.453       .  S
N1324      N1325   1.334       .  A
N1324      N1330   1.315       .  A
N1324     Mn2916   2.295       .  S
N1325      C1333   1.371       .  A
N1326      N2912   1.312       .  A
N1326      N1327   1.323       .  A
N1326     Mn1344   2.180       .  S
N1327      C1334   1.352       .  A
N1328      N2910   1.311       .  A
N1328      N1329   1.309       .  A
N1328     Mn1332   2.165       .  S
N1329      C2918   1.346       .  A
N1330      N1331   1.342       .  A
N1330     Mn1344   2.277       .  S
N1331      C1333   1.368       .  A
Mn1332     N2908   2.293       .  S
Mn1332    Cl2929   2.578       .  S
C1334      N2913   1.346       .  A
C1334      C1570   1.450       .  S
N1335      N1336   1.319       .  A
N1335      N1341   1.323       .  A
N1335     Mn1343   2.153       .  S
N1336      C1346   1.344       .  A
N1337      N1338   1.307       .  A
N1337      N1339   1.319       .  A
N1337     Mn1344   2.133       .  S
N1338      C1347   1.339       .  A
N1339      N1340   1.324       .  A
N1339     Mn1343   2.267       .  S
N1340      C1347   1.366       .  A
N1341      N1342   1.310       .  A
N1341     Mn1344   2.221       .  S
N1342      C1346   1.349       .  A
Mn1343     N2901   2.330   1_455  S
Mn1343    Cl1345   2.585       .  S
Mn1344    Cl1345   2.519       .  S
Cl1345    Mn2905   2.503   1_455  S
Cl1345    Mn2916   2.579       .  S
C1346      C1458   1.446       .  S
C1347      C1413   1.471       .  S
N1348      N1349   1.331       .  A
N1348      N1354   1.318       .  A
N1348     Mn1377   2.272       .  S
N1349      C1356   1.365       .  A
N1350      N1352   1.313       .  A
N1350      N1351   1.317       .  A
N1350     Mn1366   2.172       .  S
N1351      C1357   1.347       .  A
N1352      N1353   1.327       .  A
N1353      C1357   1.357       .  A
N1354      N1355   1.337       .  A
N1355      C1356   1.361       .  A
C1357      C1445   1.482       .  S
N1358      N1364   1.322       .  A
N1358      N1359   1.322       .  A
N1358     Mn1388   2.205       .  S
N1359      C1367   1.358       .  A
N1360      N1361   1.324       .  A
N1360      N1362   1.320       .  A
N1361      C1368   1.353       .  A
N1362      N1363   1.305       .  A
N1363      C1368   1.339       .  A
N1364      N1365   1.310       .  A
N1364     Mn1366   2.205       .  S
N1365      C1367   1.341       .  A
Mn1366    Cl1390   2.522       .  S
C1367      C1394   1.460       .  S
C1368      C1541   1.442       .  S
N1369      N1370   1.305       .  A
N1369      N1375   1.316       .  A
N1370      C1378   1.338       .  A
N1371      N1373   1.319       .  A
N1371      N1372   1.309       .  A
N1371     Mn1389   2.183   1_565  S
N1372      C1379   1.334       .  A
N1373      N1374   1.327       .  A
N1373     Mn1377   2.231       .  S
N1374      C1379   1.364       .  A
N1375      N1376   1.323       .  A
N1376      C1378   1.352       .  A
C1378      C1525   1.440       .  S
C1379      C1410   1.467       .  S
N1380      N1381   1.330       .  A
N1380      N1386   1.312       .  A
N1381      C1391   1.359   1_545  A
N1382      N1383   1.322       .  A
N1382      N1384   1.313       .  A
N1383      C1392   1.355       .  A
N1384      N1385   1.342       .  A
N1384     Mn1388   2.276       .  S
N1385      C1392   1.370       .  A
N1386      N1387   1.316   1_545  A
N1386     Mn1389   2.169       .  S
N1387      C1391   1.343       .  A
Mn1388    Cl1390   2.566       .  S
C1391      C1426   1.481       .  S
C1393      C1394   1.402       .  A
C1393      C1398   1.406       .  A
C1393      H1400   1.083       .  S
C1394      C1395   1.414       .  A
C1395      C1402   1.504       .  S
C1395      C1396   1.387       .  A
C1396      C1397   1.398       .  A
C1396      H1401   1.084       .  S
C1397      C1398   1.416       .  A
C1398      C1399   1.504       .  S
C1399      H1403   1.110       .  S
C1399      H1404   1.109       .  S
C1399      H1405   1.107       .  S
C1402      H1406   1.109       .  S
C1402      H1407   1.102       .  S
C1402      H1408   1.106       .  S
C1409      C1410   1.397       .  A
C1409      C1414   1.404       .  A
C1409      H1416   1.084       .  S
C1410      C1411   1.421       .  A
C1411      C1418   1.507       .  S
C1411      C1412   1.392       .  A
C1412      C1413   1.393       .  A
C1412      H1417   1.085       .  S
C1413      C1414   1.422       .  A
C1414      C1415   1.505       .  S
C1415      H1419   1.109       .  S
C1415      H1420   1.110       .  S
C1415      H1421   1.110       .  S
C1418      H1422   1.107       .  S
C1418      H1423   1.109       .  S
C1418      H1424   1.111       .  S
C1425      C1426   1.407       .  A
C1425      C1430   1.407       .  A
C1425      H1432   1.087       .  S
C1426      C1427   1.407       .  A
C1427      C1434   1.505       .  S
C1427      C1428   1.408       .  A
C1428      C1429   1.409       .  A
C1428      H1433   1.086       .  S
C1429      C1430   1.411       .  A
C1430      C1431   1.507       .  S
C1431      H1435   1.111       .  S
C1431      H1436   1.109       .  S
C1431      H1437   1.111       .  S
C1434      H1438   1.110   1_565  S
C1434      H1439   1.110   1_565  S
C1434      H1440   1.111       .  S
C1441      C1442   1.410       .  A
C1441      C1446   1.412       .  A
C1441      H1448   1.074       .  S
C1442      C1443   1.408       .  A
C1443      C1450   1.508       .  S
C1443      C1444   1.405       .  A
C1444      C1445   1.407       .  A
C1444      H1449   1.078       .  S
C1445      C1446   1.408       .  A
C1446      C1447   1.505       .  S
C1447      H1451   1.110       .  S
C1447      H1452   1.111       .  S
C1447      H1453   1.111       .  S
C1450      H1454   1.110       .  S
C1450      H1455   1.110       .  S
C1450      H1456   1.110       .  S
C1457      C1458   1.394       .  A
C1457      C1462   1.400       .  A
C1457      H1464   1.084       .  S
C1458      C1459   1.400       .  A
C1459      C1466   1.504       .  S
C1459      C1460   1.395       .  A
C1460      C1461   1.407       .  A
C1460      H1465   1.084       .  S
C1461      C1462   1.423       .  A
C1462      C1463   1.508       .  S
C1463      H1467   1.111       .  S
C1463      H1468   1.111       .  S
C1463      H1469   1.109       .  S
C1466      H1470   1.109       .  S
C1466      H1471   1.110       .  S
C1466      H1472   1.111       .  S
C1473      C1474   1.408       .  A
C1473      C1478   1.396       .  A
C1473      H1480   1.083       .  S
C1474      C1475   1.421       .  A
C1475      C1482   1.508       .  S
C1475      C1476   1.401       .  A
C1476      C1477   1.396       .  A
C1476      H1481   1.083       .  S
C1477      C1478   1.400       .  A
C1478      C1479   1.506       .  S
C1479      H1483   1.111       .  S
C1479      H1484   1.110       .  S
C1479      H1485   1.110       .  S
C1482      H1486   1.109       .  S
C1482      H1487   1.110       .  S
C1482      H1488   1.110       .  S
C1489      C1490   1.397       .  A
C1489      C1494   1.396       .  A
C1489      H1496   1.083       .  S
C1490      C1491   1.404       .  A
C1491      C1492   1.392       .  A
C1492      C1493   1.400       .  A
C1492      H1497   1.079       .  S
C1493      C1494   1.413       .  A
C1494      C1495   1.506       .  S
C1495      H1499   1.109       .  S
C1495      H1500   1.108       .  S
C1495      H1501   1.110       .  S
C1498      H1502   1.111       .  S
C1498      H1504   1.110       .  S
C1505      C1506   1.404       .  A
C1505      C1510   1.392       .  A
C1505      H1512   1.085       .  S
C1506      C1507   1.415       .  A
C1508      H1513   1.085       .  S
C1509      C1510   1.403       .  A
C1510      C1511   1.507       .  S
C1511      H1515   1.111       .  S
C1511      H1516   1.111       .  S
C1511      H1517   1.109       .  S
C1514      H1518   1.109       .  S
C1514      H1519   1.110       .  S
C1514      H1520   1.111       .  S
C1521      C1526   1.392       .  A
C1521      H1528   1.084       .  S
C1522      C1523   1.415       .  A
C1523      C1530   1.506       .  S
C1523      C1524   1.398       .  A
C1524      H1529   1.084       .  S
C1525      C1526   1.406       .  A
C1526      C1527   1.506       .  S
C1527      H1531   1.110       .  S
C1527      H1532   1.107       .  S
C1527      H1533   1.108       .  S
C1530      H1534   1.108       .  S
C1530      H1535   1.108       .  S
C1530      H1536   1.110       .  S
C1537      C1538   1.406       .  A
C1537      C1542   1.398       .  A
C1537      H1544   1.085       .  S
C1539      C1546   1.508   1_545  S
C1539      C1540   1.393       .  A
C1540      C1541   1.397       .  A
C1540      H1545   1.087   1_545  S
C1542      C1543   1.505       .  S
C1543      H1547   1.110       .  S
C1543      H1548   1.110       .  S
C1543      H1549   1.106       .  S
C1546      H1550   1.109       .  S
C1546      H1551   1.109   1_565  S
C1546      H1552   1.110       .  S
C1553      C1554   1.397       .  A
C1553      C1558   1.396       .  A
C1553      H1560   1.084       .  S
C1554      C1555   1.413       .  A
C1555      C1562   1.502       .  S
C1555      C1556   1.400       .  A
C1556      C1557   1.395       .  A
C1556      H1561   1.085       .  S
C1557      C1558   1.412       .  A
C1558      C3143   1.509       .  S
C1559      C3142   1.509       .  S
C1559      H1563   1.111   1_655  S
C1559      H3148   1.109       .  S
C1559      H1565   1.109   1_655  S
C1562      H1566   1.110       .  S
C1562      H1567   1.106       .  S
C1562      H1568   1.105       .  S
H1564      C3143   1.110       .  S
C1569      C3154   1.402       .  A
C1569      C1574   1.400       .  A
C1569      H1576   1.083       .  S
C1570      C3153   1.401       .  A
C1570      C1571   1.408       .  A
C1571      C1578   1.504       .  S
C1571      C1572   1.395       .  A
C1572      C1573   1.399       .  A
C1572      H1577   1.086       .  S
C1573      C3158   1.407       .  A
C1574      C1575   1.503       .  S
C1574      C3157   1.406       .  A
C1575      H1579   1.111       .  S
C1575      H1580   1.110       .  S
C1575      H1581   1.107       .  S
C1578      H1582   1.109       .  S
C1578      H1583   1.110       .  S
C1578      H1584   1.110       .  S
C1585      C1586   1.543       .  S
C1585      C1591   1.537       .  S
C1585      C1589   1.563       .  S
C1585      C1674   1.593       .  S
C1586      H1593   1.085       .  S
C1586      C1587   1.375       .  D
C1587      C1588   1.587       .  S
C1587      C1752   1.539       .  S
C1588      C1592   1.578       .  S
C1588      C1590   1.587       .  S
C1588      H1594   1.110       .  S
C1589      H1595   1.085       .  S
C1589      C1590   1.395       .  D
C1590      C1719   1.563       .  S
C1591      H1596   1.086       .  S
C1591      C1592   1.375       .  D
C1592      C1629   1.533       .  S
C1597      C1598   1.541       .  S
C1597      C1603   1.540       .  S
C1597      C1601   1.533       .  S
C1597      C1639   1.558       .  S
C1598      H1605   1.086       .  S
C1598      C1599   1.372       .  D
C1599      C1600   1.597       .  S
C1599      C1684   1.546       .  S
C1600      C1604   1.604       .  S
C1600      C1602   1.585       .  S
C1600      H1606   1.110       .  S
C1601      H1607   1.087       .  S
C1601      C1602   1.374       .  D
C1602      C1788   1.539       .  S
C1603      H1608   1.086       .  S
C1603      C1604   1.377       .  D
C1604      C1729   1.554       .  S
N1609      N1610   1.322       .  A
N1609      N1615   1.321       .  A
N1609     Mn2430   2.239       .  S
N1610      C1617   1.359       .  A
N1611      N1612   1.324       .  A
N1611     Mn1627   2.258   1_455  S
N1613      N1614   1.314       .  A
N1613     Mn1638   2.146       .  S
N1614      C1618   1.341       .  A
N1615      N1616   1.307       .  A
N1616      C1617   1.335       .  A
C1617      C1918   1.463       .  S
C1618      C1969   1.461       .  S
N1619      N1625   1.312       .  A
N1619      N2016   1.311       .  A
N1619     Mn2837   2.174   1_545  S
N1620      N2015   1.313       .  A
N1620      C2024   1.351       .  A
N1621      N1622   1.340       .  A
N1621      N1623   1.314       .  A
N1621     Mn2419   2.274       .  S
N1622      C1629   1.368       .  A
N1623      N1624   1.324       .  A
N1623     Mn2045   2.236       .  S
N1624      C1629   1.359       .  A
N1625      N1626   1.316       .  A
N1625     Mn1627   2.155       .  S
N1626      C1628   1.347       .  A
Mn1627     N2413   2.279   1_545  S
Mn1627    Cl1651   2.532   1_655  S
C1628      N2016   1.349       .  A
C1628      C1886   1.441       .  S
N1630      N1631   1.331       .  A
N1630      N1636   1.314       .  A
N1630     Mn2034   2.254   1_554  S
N1631      C1639   1.363       .  A
N1632      N2030   1.312       .  A
N1632      N1633   1.317       .  A
N1632     Mn1650   2.156       .  S
N1633      C1640   1.346       .  A
N1634      N2028   1.311       .  A
N1634      N1635   1.315       .  A
N1634     Mn2430   2.188       .  S
N1635      C2036   1.354       .  A
N1636      N1637   1.332       .  A
N1636     Mn2442   2.252       .  S
N1637      C1639   1.364       .  A
Mn1638     N2401   2.239   1_545  S
Mn1638     N2026   2.251       .  S
Mn1638     N2426   2.193   1_545  S
C1640      N2031   1.353       .  A
C1640      C1905   1.449       .  S
N1641      N1642   1.316       .  A
N1641      N1647   1.318       .  A
N1641     Mn1649   2.164       .  S
N1642      C1652   1.345       .  A
N1643      N1644   1.309       .  A
N1643      N1645   1.317       .  A
N1644      C1653   1.339       .  A
N1645      N1646   1.320       .  A
N1645     Mn2441   2.225   1_545  S
N1646      C1653   1.357       .  A
Mn1649     N2807   2.181   1_554  S
Mn1649     N2019   2.231   1_554  S
Mn1649     N2437   2.218       .  S
Mn1649    Cl2839   2.547   1_655  S
Mn1650     N2428   2.257       .  S
Cl1651    Mn2837   2.551   1_445  S
C1652      C1950   1.466       .  S
C1653      C1934   1.461       .  S
N1654      N1655   1.313       .  A
N1654      N1660   1.322       .  A
N1654     Mn2079   2.206       .  S
N1655      C1662   1.345       .  A
N1656      N1658   1.326       .  A
N1656      N1657   1.319       .  A
N1656     Mn1672   2.226       .  S
N1657      C1663   1.351       .  A
N1658      N1659   1.313       .  A
N1658     Mn1683   2.162       .  S
N1659      C1663   1.338       .  A
N1660      N1661   1.318       .  A
N1660     Mn2068   2.185       .  S
N1661      C1662   1.351       .  A
C1662      C1889   1.458       .  S
C1663      C1870   1.473       .  S
N1664      N1670   1.311       .  A
N1664      N1665   1.313       .  A
N1664     Mn2090   2.168   1_554  S
N1665      C1673   1.345       .  A
N1666      N1667   1.340       .  A
N1666      N1668   1.314       .  A
N1666     Mn2068   2.294       .  S
N1667      C1674   1.370       .  A
N1668      N1669   1.335       .  A
N1668     Mn1694   2.270       .  S
N1669      C1674   1.369       .  A
N1670      N1671   1.328       .  A
N1670     Mn1672   2.223       .  S
N1671      C1673   1.363       .  A
Mn1672     N2056   2.170   1_554  S
Mn1672     N2062   2.287   1_554  S
Mn1672    Cl1696   2.574       .  S
C1673      C1825   1.477       .  S
N1675      N1676   1.339       .  A
N1675      N1681   1.315       .  A
N1675     Mn1683   2.266       .  S
N1676      C1684   1.369       .  A
N1677      N1679   1.310       .  A
N1677      N1678   1.326       .  A
N1677     Mn1695   2.203       .  S
N1678      C1685   1.360       .  A
N1679      N1680   1.314       .  A
N1679     Mn2079   2.178       .  S
N1680      C1685   1.346       .  A
N1681      N1682   1.334       .  A
N1681     Mn2091   2.285   1_554  S
N1682      C1684   1.367       .  A
Mn1683     N2050   2.205       .  S
Mn1683     N2075   2.170   1_554  S
Mn1683    Cl1696   2.524       .  S
C1685      C1838   1.471       .  S
N1686      N1687   1.311       .  A
N1686      N1692   1.325       .  A
N1686     Mn1694   2.156       .  S
N1687      C1697   1.338       .  A
N1688      N1689   1.315       .  A
N1688      N1690   1.320       .  A
N1688     Mn2091   2.159   1_554  S
N1689      C1698   1.345       .  A
N1690      N1691   1.317       .  A
N1690     Mn2090   2.228   1_554  S
N1691      C1698   1.353       .  A
N1692      N1693   1.319       .  A
N1692     Mn1695   2.217       .  S
N1693      C1697   1.349       .  A
Mn1694     N2060   2.166       .  S
Mn1694     N2086   2.224       .  S
Mn1694    Cl2092   2.521       .  S
Mn1695     N2077   2.277       .  S
Mn1695     N2084   2.151       .  S
Mn1695    Cl2092   2.570       .  S
Cl1696    Mn2090   2.519   1_554  S
Cl1696    Mn2091   2.570   1_554  S
C1697      C1857   1.466       .  S
C1698      C1902   1.463       .  S
N1699      N1700   1.324       .  A
N1699      N1705   1.316       .  A
N1699     Mn1728   2.255   1_655  S
N1700      C1707   1.366       .  A
N1701      N1703   1.318       .  A
N1701      N1702   1.311       .  A
N1701     Mn1717   2.218       .  S
N1702      C1708   1.349       .  A
N1703      N1704   1.320       .  A
N1703     Mn1728   2.147   1_655  S
N1704      C1708   1.346       .  A
N1705      N1706   1.304       .  A
N1705     Mn1717   2.132       .  S
N1706      C1707   1.336       .  A
C1707      C1793   1.459       .  S
C1708      C1873   1.449       .  S
N1709      N1710   1.309       .  A
N1709     Mn1739   2.158       .  S
N1711      N1712   1.331       .  A
N1711      N1713   1.313       .  A
N1711     Mn1717   2.247       .  S
N1712      C1719   1.360       .  A
N1713      N1714   1.347       .  A
N1714      C1719   1.379       .  A
N1715      N1716   1.324       .  A
N1715     Mn1717   2.182       .  S
N1716      C1718   1.352       .  A
C1718      C1953   1.452       .  S
N1720      N1721   1.333       .  A
N1720      N1726   1.314       .  A
N1721      C1729   1.370       .  A
N1722      N1723   1.323       .  A
N1722     Mn1740   2.180       .  S
N1723      C1730   1.354       .  A
N1724      N1725   1.308       .  A
N1724     Mn1728   2.166       .  S
N1726      N1727   1.341       .  A
N1726     Mn1740   2.272       .  S
N1727      C1729   1.367       .  A
C1730      C1966   1.451       .  S
N1731      N1732   1.319       .  A
N1731      N1737   1.322       .  A
N1731     Mn1739   2.156       .  S
N1732      C1742   1.344       .  A
N1733      N1734   1.305       .  A
N1733      N1735   1.319       .  A
N1733     Mn1740   2.130       .  S
N1734      C1743   1.338       .  A
N1735      N1736   1.324       .  A
N1735     Mn1739   2.266       .  S
N1736      C1743   1.367       .  A
N1737      N1738   1.309       .  A
N1737     Mn1740   2.217       .  S
N1738      C1742   1.348       .  A
Mn1739    Cl1741   2.583       .  S
Mn1740    Cl1741   2.518       .  S
C1742      C1854   1.445       .  S
C1743      C1809   1.471       .  S
N1744      N1745   1.331       .  A
N1744      N1750   1.318       .  A
N1744     Mn1773   2.274       .  S
N1745      C1752   1.366       .  A
N1746      N1748   1.312   1_545  A
N1746      N1747   1.315       .  A
N1746     Mn1762   2.163       .  S
N1747      C1753   1.345       .  A
N1748      N1749   1.327   1_565  A
N1748     Mn2565   2.222       .  S
N1749      C1753   1.358       .  A
N1750      N1751   1.337       .  A
N1750     Mn2554   2.255       .  S
N1751      C1752   1.362       .  A
C1753      C1841   1.479       .  S
N1754      N1760   1.323       .  A
N1754      N1755   1.321       .  A
N1754     Mn1784   2.205       .  S
N1755      C1763   1.357       .  A
N1756      N1757   1.323       .  A
N1756      N1758   1.320       .  A
N1756     Mn2554   2.182       .  S
N1757      C1764   1.351       .  A
N1758      N1759   1.304       .  A
N1758     Mn2576   2.178       .  S
N1759      C1764   1.339       .  A
N1760      N1761   1.311       .  A
N1760     Mn1762   2.209       .  S
N1761      C1763   1.342       .  A
Mn1762     N2542   2.262   1_545  S
Mn1762     N2548   2.191       .  S
Mn1762    Cl1786   2.527       .  S
C1763      C1790   1.461       .  S
C1764      C1937   1.439       .  S
N1765      N1766   1.305       .  A
N1765      N1771   1.317       .  A
N1765     Mn2565   2.158       .  S
N1766      C1774   1.339       .  A
N1767      N1769   1.320       .  A
N1767      N1768   1.309       .  A
N1767     Mn1785   2.182       .  S
N1768      C1775   1.335       .  A
N1769      N1770   1.327       .  A
N1769     Mn1773   2.231       .  S
N1770      C1775   1.363       .  A
N1771      N1772   1.325   1_565  A
N1771     Mn2577   2.202       .  S
N1772      C1774   1.353   1_545  A
Mn1773     N2540   2.229       .  S
Mn1773     N2557   2.149       .  S
Mn1773    Cl2578   2.562       .  S
C1774      C1921   1.445       .  S
C1775      C1806   1.466       .  S
N1776      N1777   1.328       .  A
N1776      N1782   1.311       .  A
N1776     Mn2576   2.214       .  S
N1777      C1787   1.357       .  A
N1778      N1779   1.324       .  A
N1778      N1780   1.312       .  A
N1778     Mn2577   2.216   1_545  S
N1779      C1788   1.357       .  A
N1780      N1781   1.343       .  A
N1780     Mn1784   2.285       .  S
N1781      C1788   1.371       .  A
N1782      N1783   1.316       .  A
N1782     Mn1785   2.171       .  S
N1783      C1787   1.345       .  A
Mn1784     N2550   2.170       .  S
Mn1784     N2568   2.223       .  S
Mn1784    Cl1786   2.565       .  S
Mn1785     N2563   2.194       .  S
Mn1785     N2570   2.216       .  S
Mn1785    Cl2578   2.506       .  S
Cl1786    Mn2565   2.564   1_545  S
Cl1786    Mn2577   2.507   1_545  S
C1787      C1822   1.477       .  S
C1789      C1790   1.403       .  A
C1789      C1794   1.405       .  A
C1789      H1796   1.084       .  S
C1790      C1791   1.414       .  A
C1791      C1798   1.507       .  S
C1791      C1792   1.390       .  A
C1792      C1793   1.400       .  A
C1792      H1797   1.085       .  S
C1793      C1794   1.414       .  A
C1794      C1795   1.502       .  S
C1795      H1799   1.110       .  S
C1795      H1800   1.109       .  S
C1795      H1801   1.106       .  S
C1798      H1802   1.110       .  S
C1798      H1803   1.105       .  S
C1798      H1804   1.107       .  S
C1805      C1806   1.397       .  A
C1805      C1810   1.404       .  A
C1805      H1812   1.084       .  S
C1806      C1807   1.418       .  A
C1807      C1814   1.504       .  S
C1807      C1808   1.391       .  A
C1808      C1809   1.394       .  A
C1808      H1813   1.085       .  S
C1809      C1810   1.424       .  A
C1810      C1811   1.506       .  S
C1811      H1815   1.108       .  S
C1811      H1816   1.110       .  S
C1811      H1817   1.111       .  S
C1814      H1818   1.105       .  S
C1814      H1819   1.110       .  S
C1814      H1820   1.111       .  S
C1821      C1822   1.406       .  A
C1821      C1826   1.406       .  A
C1821      H1828   1.087       .  S
C1822      C1823   1.407       .  A
C1823      C1830   1.505       .  S
C1823      C1824   1.405       .  A
C1824      C1825   1.407       .  A
C1824      H1829   1.086       .  S
C1825      C1826   1.411       .  A
C1826      C1827   1.507       .  S
C1827      H1831   1.111       .  S
C1827      H1832   1.109       .  S
C1827      H1833   1.111       .  S
C1830      H1834   1.110       .  S
C1830      H1835   1.111       .  S
C1830      H1836   1.111       .  S
C1837      C1838   1.408       .  A
C1837      C1842   1.409       .  A
C1837      H1844   1.075       .  S
C1838      C1839   1.408       .  A
C1839      C1846   1.509       .  S
C1839      C1840   1.402       .  A
C1840      C1841   1.407       .  A
C1840      H1845   1.079       .  S
C1841      C1842   1.408       .  A
C1842      C1843   1.505       .  S
C1843      H1847   1.110       .  S
C1843      H1848   1.110       .  S
C1843      H1849   1.111   1_545  S
C1846      H1850   1.110       .  S
C1846      H1851   1.109       .  S
C1846      H1852   1.110       .  S
C1853      C1854   1.395       .  A
C1853      C1858   1.400       .  A
C1853      H1860   1.085       .  S
C1854      C1855   1.400       .  A
C1855      C1862   1.505       .  S
C1855      C1856   1.394       .  A
C1856      C1857   1.407       .  A
C1856      H1861   1.084       .  S
C1857      C1858   1.422       .  A
C1858      C1859   1.508       .  S
C1859      H1863   1.111       .  S
C1859      H1864   1.111       .  S
C1859      H1865   1.110       .  S
C1862      H1866   1.108       .  S
C1862      H1867   1.110       .  S
C1862      H1868   1.111       .  S
C1869      C1870   1.408       .  A
C1869      C1874   1.396       .  A
C1869      H1876   1.084       .  S
C1870      C1871   1.421       .  A
C1871      C1878   1.508       .  S
C1871      C1872   1.401       .  A
C1872      C1873   1.396       .  A
C1872      H1877   1.083       .  S
C1873      C1874   1.400       .  A
C1874      C1875   1.505       .  S
C1875      H1879   1.111       .  S
C1875      H1880   1.110       .  S
C1875      H1881   1.110       .  S
C1878      H1882   1.109       .  S
C1878      H1883   1.110       .  S
C1878      H1884   1.111       .  S
C1885      C1886   1.394       .  A
C1885      C1890   1.393       .  A
C1885      H1892   1.083       .  S
C1886      C1887   1.405       .  A
C1887      C2290   1.507       .  S
C1887      C1888   1.394       .  A
C1888      C1889   1.401       .  A
C1888      H1893   1.079       .  S
C1889      C1890   1.414       .  A
C1890      C1891   1.505       .  S
C1891      H1895   1.108       .  S
C1891      H1896   1.108       .  S
C1891      H1897   1.110       .  S
C1894      C2283   1.507       .  S
C1894      H1898   1.111       .  S
C1894      H2295   1.110       .  S
C1894      H1900   1.110       .  S
H1899      C2290   1.110       .  S
C1901      C1902   1.402       .  A
C1901      C1906   1.393       .  A
C1901      H1908   1.085       .  S
C1902      C1903   1.417       .  A
C1903      C2306   1.508       .  S
C1903      C2300   1.396       .  A
C1904      C2299   1.395       .  A
C1904      C2301   1.397       .  A
C1904      H1909   1.085       .  S
C1905      C2300   1.396       .  A
C1905      C1906   1.404       .  A
C1906      C1907   1.506       .  S
C1907      H1911   1.111       .  S
C1907      H1912   1.111       .  S
C1907      H1913   1.109       .  S
C1910      C2299   1.508       .  S
C1910      H1914   1.109       .  S
C1910      H1915   1.110       .  S
C1910      H1916   1.111       .  S
C1917      C2710   1.399       .  A
C1917      C1922   1.388   1_565  A
C1917      H1924   1.084   1_565  S
C1918      C2709   1.401       .  A
C1918      C1919   1.417       .  A
C1919      C1926   1.505       .  S
C1919      C1920   1.400       .  A
C1920      C2713   1.397       .  A
C1920      H1925   1.084       .  S
C1921      C2712   1.398       .  A
C1921      C1922   1.405   1_565  A
C1922      C1923   1.501       .  S
C1923      H1927   1.107       .  S
C1923      H1928   1.103       .  S
C1923      H1929   1.110       .  S
C1926      H1930   1.109       .  S
C1926      H1931   1.107       .  S
C1926      H1932   1.110       .  S
C1933      C1934   1.405       .  A
C1933      C1938   1.399       .  A
C1933      H1940   1.085       .  S
C1934      C2727   1.418       .  A
C1935      C1942   1.507       .  S
C1935      C2726   1.417       .  A
C1935      C1936   1.394       .  A
C1936      C1937   1.397       .  A
C1936      H1941   1.087       .  S
C1937      C2730   1.404       .  A
C1938      C1939   1.505       .  S
C1938      C2729   1.404       .  A
C1939      H1943   1.108       .  S
C1939      H1944   1.110       .  S
C1939      H1945   1.107       .  S
C1942      H1946   1.108       .  S
C1942      H1947   1.109       .  S
C1942      H1948   1.111       .  S
C1949      C1950   1.398       .  A
C1949      C1954   1.399       .  A
C1949      H1956   1.085       .  S
C1950      C1951   1.414       .  A
C1951      C1958   1.501       .  S
C1951      C1952   1.398       .  A
C1952      C1953   1.394       .  A
C1952      H1957   1.085       .  S
C1953      C1954   1.412       .  A
C1955      H1959   1.111       .  S
C1955      H1961   1.110       .  S
C1958      H1962   1.109       .  S
C1958      H1963   1.106       .  S
C1958      H1964   1.107       .  S
C1965      C1970   1.401       .  A
C1965      H1972   1.084       .  S
C1966      C1967   1.408       .  A
C1967      C1974   1.504       .  S
C1967      C1968   1.396       .  A
C1968      C1969   1.399       .  A
C1968      H1973   1.085       .  S
C1970      C1971   1.504       .  S
C1971      H1975   1.111       .  S
C1971      H1976   1.110       .  S
C1971      H1977   1.109       .  S
C1974      H1978   1.108       .  S
C1974      H1979   1.110       .  S
C1974      H1980   1.110       .  S
C1981      C1982   1.541       .  S
C1981      C1987   1.534       .  S
C1981      C1985   1.564       .  S
C1981      C2070   1.590       .  S
C1982      H1989   1.085       .  S
C1982      C1983   1.374       .  D
C1983      C1984   1.588       .  S
C1983      C2148   1.539       .  S
C1984      C1988   1.578       .  S
C1984      C1986   1.585       .  S
C1984      H1990   1.110       .  S
C1985      H1991   1.085       .  S
C1985      C1986   1.396       .  D
C1986      C2115   1.563       .  S
C1987      H1992   1.086       .  S
C1987      C1988   1.374       .  D
C1988      C2025   1.530       .  S
C1993      C1994   1.538       .  S
C1993      C1999   1.540       .  S
C1993      C1997   1.532       .  S
C1993      C2035   1.553       .  S
C1994      H2001   1.086       .  S
C1994      C1995   1.371       .  D
C1995      C1996   1.598       .  S
C1995      C2080   1.544       .  S
C1996      C2000   1.608       .  S
C1996      C1998   1.583       .  S
C1996      H2002   1.110       .  S
C1997      H2003   1.087       .  S
C1997      C1998   1.374       .  D
C1998      C2184   1.536       .  S
C1999      H2004   1.086       .  S
C1999      C2000   1.376       .  D
C2000      C2125   1.557       .  S
N2005      N2006   1.322       .  A
N2005      N2011   1.321       .  A
N2005     Mn2826   2.233   1_556  S
N2006      C2013   1.358       .  A
N2007      N2008   1.323       .  A
N2007     Mn2023   2.253   1_455  S
N2009      N2010   1.313       .  A
N2009     Mn2034   2.136       .  S
N2010      C2014   1.339       .  A
N2011      N2012   1.307       .  A
N2012      C2013   1.334       .  A
C2013      C2314   1.462       .  S
C2014      C2365   1.455       .  S
N2015      N2021   1.312       .  A
N2015     Mn2441   2.181   1_546  S
N2017      N2018   1.339       .  A
N2017      N2019   1.315       .  A
N2017     Mn2815   2.270       .  S
N2018      C2025   1.367       .  A
N2019      N2020   1.324       .  A
N2020      C2025   1.358       .  A
N2021      N2022   1.316       .  A
N2021     Mn2023   2.154       .  S
N2022      C2024   1.346       .  A
Mn2023     N2809   2.274   1_545  S
Mn2023    Cl2047   2.532   1_656  S
C2024      C2282   1.444       .  S
N2026      N2027   1.330       .  A
N2026      N2032   1.314       .  A
N2027      C2035   1.363       .  A
N2028      N2029   1.316       .  A
N2028     Mn2046   2.151       .  S
N2029      C2036   1.345       .  A
N2030      N2031   1.315       .  A
N2030     Mn2826   2.190       .  S
N2032      N2033   1.330       .  A
N2032     Mn2838   2.243       .  S
N2033      C2035   1.362       .  A
Mn2034     N2797   2.240   1_545  S
Mn2034     N2822   2.185   1_546  S
C2036      C2301   1.447       .  S
N2037      N2038   1.316       .  A
N2037      N2043   1.317       .  A
N2037     Mn2045   2.154       .  S
N2038      C2048   1.345       .  A
N2039      N2040   1.309       .  A
N2039      N2041   1.317       .  A
N2040      C2049   1.339       .  A
N2041      N2042   1.320       .  A
N2041     Mn2837   2.220   1_545  S
N2042      C2049   1.356       .  A
Mn2045     N2411   2.180       .  S
Mn2045     N2833   2.226       .  S
Mn2045    Cl2443   2.550       .  S
Mn2046     N2824   2.244       .  S
Cl2047    Mn2441   2.550   1_445  S
C2048      C2346   1.465       .  S
C2049      C2330   1.461       .  S
N2050      N2051   1.313   1_554  A
N2050      N2056   1.321   1_554  A
N2051      C2058   1.346       .  A
N2052      N2054   1.326       .  A
N2052      N2053   1.319       .  A
N2052     Mn2068   2.229       .  S
N2053      C2059   1.351       .  A
N2054      N2055   1.313       .  A
N2054     Mn2079   2.165       .  S
N2055      C2059   1.339       .  A
N2056      N2057   1.316       .  A
N2057      C2058   1.349       .  A
C2058      C2285   1.454       .  S
C2059      C2266   1.473       .  S
N2060      N2066   1.311       .  A
N2060      N2061   1.314       .  A
N2061      C2069   1.344       .  A
N2062      N2063   1.340       .  A
N2062      N2064   1.314       .  A
N2063      C2070   1.369       .  A
N2064      N2065   1.335       .  A
N2064     Mn2090   2.271       .  S
N2065      C2070   1.369       .  A
N2066      N2067   1.329       .  A
N2066     Mn2068   2.235       .  S
N2067      C2069   1.365       .  A
Mn2068    Cl2092   2.571       .  S
C2069      C2221   1.484       .  S
N2071      N2072   1.339       .  A
N2071      N2077   1.314       .  A
N2071     Mn2079   2.269       .  S
N2072      C2080   1.369       .  A
N2073      N2075   1.309       .  A
N2073      N2074   1.326       .  A
N2073     Mn2091   2.208       .  S
N2074      C2081   1.361       .  A
N2075      N2076   1.314       .  A
N2076      C2081   1.345       .  A
N2077      N2078   1.332       .  A
N2078      C2080   1.366       .  A
Mn2079    Cl2092   2.527       .  S
C2081      C2234   1.474       .  S
N2082      N2083   1.311       .  A
N2082      N2088   1.325       .  A
N2082     Mn2090   2.155       .  S
N2083      C2093   1.337       .  A
N2084      N2085   1.315       .  A
N2084      N2086   1.320       .  A
N2085      C2094   1.345       .  A
N2086      N2087   1.315       .  A
N2087      C2094   1.352       .  A
N2088      N2089   1.319       .  A
N2088     Mn2091   2.223       .  S
N2089      C2093   1.350       .  A
C2093      C2253   1.466       .  S
C2094      C2298   1.458       .  S
N2095      N2096   1.324       .  A
N2095      N2101   1.316       .  A
N2095     Mn2124   2.257   1_655  S
N2096      C2103   1.367       .  A
N2097      N2099   1.318       .  A
N2097      N2098   1.311       .  A
N2097     Mn2113   2.219       .  S
N2098      C2104   1.350       .  A
N2099      N2100   1.320       .  A
N2099     Mn2124   2.141   1_655  S
N2100      C2104   1.344       .  A
N2101      N2102   1.305       .  A
N2101     Mn2113   2.130       .  S
N2102      C2103   1.336       .  A
C2103      C2189   1.460       .  S
C2104      C2269   1.448       .  S
N2105      N2106   1.309       .  A
N2105     Mn2135   2.158       .  S
N2107      N2108   1.331       .  A
N2107      N2109   1.313       .  A
N2107     Mn2113   2.245       .  S
N2108      C2115   1.359       .  A
N2109      N2110   1.347       .  A
N2110      C2115   1.380       .  A
N2111      N2112   1.323       .  A
N2111     Mn2113   2.182       .  S
N2112      C2114   1.352       .  A
C2114      C2349   1.454       .  S
N2116      N2117   1.335       .  A
N2116      N2122   1.314       .  A
N2117      C2125   1.373       .  A
N2118      N2119   1.323       .  A
N2118     Mn2136   2.180       .  S
N2119      C2126   1.353       .  A
N2120      N2121   1.308       .  A
N2120     Mn2124   2.161       .  S
N2122      N2123   1.340       .  A
N2122     Mn2136   2.262       .  S
N2123      C2125   1.365       .  A
C2126      C2362   1.450       .  S
N2127      N2128   1.319       .  A
N2127      N2133   1.321       .  A
N2127     Mn2135   2.158       .  S
N2128      C2138   1.346       .  A
N2129      N2130   1.306       .  A
N2129      N2131   1.319       .  A
N2129     Mn2136   2.134       .  S
N2130      C2139   1.339       .  A
N2131      N2132   1.323       .  A
N2131     Mn2135   2.264       .  S
N2132      C2139   1.366       .  A
N2133      N2134   1.308       .  A
N2133     Mn2136   2.203       .  S
N2134      C2138   1.345       .  A
Mn2135    Cl2137   2.579       .  S
Mn2136    Cl2137   2.520       .  S
C2138      C2250   1.444       .  S
C2139      C2205   1.470       .  S
N2140      N2141   1.330       .  A
N2140      N2146   1.319       .  A
N2140     Mn2169   2.278       .  S
N2141      C2148   1.365       .  A
N2142      N2144   1.313   1_545  A
N2142      N2143   1.316       .  A
N2142     Mn2158   2.166       .  S
N2143      C2149   1.344       .  A
N2144      N2145   1.328   1_565  A
N2144     Mn2961   2.225       .  S
N2145      C2149   1.357       .  A
N2146      N2147   1.338       .  A
N2146     Mn2950   2.254       .  S
N2147      C2148   1.362       .  A
C2149      C2237   1.478       .  S
N2150      N2156   1.322       .  A
N2150      N2151   1.321       .  A
N2150     Mn2180   2.203       .  S
N2151      C2159   1.357       .  A
N2152      N2153   1.324       .  A
N2152      N2154   1.319       .  A
N2152     Mn2950   2.187       .  S
N2153      C2160   1.353       .  A
N2154      N2155   1.304       .  A
N2154     Mn2972   2.168       .  S
N2155      C2160   1.337       .  A
N2156      N2157   1.311       .  A
N2156     Mn2158   2.207       .  S
N2157      C2159   1.342       .  A
Mn2158     N2938   2.266   1_545  S
Mn2158     N2944   2.195       .  S
Mn2158    Cl2182   2.526       .  S
C2159      C2186   1.461       .  S
C2160      C2333   1.440       .  S
N2161      N2162   1.306       .  A
N2161      N2167   1.317       .  A
N2161     Mn2961   2.158       .  S
N2162      C2170   1.339       .  A
N2163      N2165   1.320       .  A
N2163      N2164   1.309       .  A
N2163     Mn2181   2.183       .  S
N2164      C2171   1.335       .  A
N2165      N2166   1.327       .  A
N2165     Mn2169   2.233       .  S
N2166      C2171   1.364       .  A
N2167      N2168   1.325   1_565  A
N2167     Mn2973   2.206   1_565  S
N2168      C2170   1.354   1_545  A
Mn2169     N2936   2.222       .  S
Mn2169     N2953   2.156       .  S
Mn2169    Cl2974   2.561       .  S
C2170      C2317   1.446       .  S
C2171      C2202   1.468       .  S
N2172      N2173   1.329       .  A
N2172      N2178   1.311       .  A
N2172     Mn2972   2.228       .  S
N2173      C2183   1.360       .  A
N2174      N2175   1.323       .  A
N2174      N2176   1.313       .  A
N2174     Mn2973   2.217       .  S
N2175      C2184   1.356       .  A
N2176      N2177   1.343       .  A
N2176     Mn2180   2.285       .  S
N2177      C2184   1.371       .  A
N2178      N2179   1.316       .  A
N2178     Mn2181   2.172       .  S
N2179      C2183   1.346       .  A
Mn2180     N2946   2.174       .  S
Mn2180     N2964   2.221       .  S
Mn2180    Cl2182   2.569       .  S
Mn2181     N2959   2.198       .  S
Mn2181     N2966   2.214       .  S
Mn2181    Cl2974   2.510       .  S
Cl2182    Mn2961   2.566   1_545  S
Cl2182    Mn2973   2.506       .  S
C2183      C2218   1.482       .  S
C2185      C2186   1.402       .  A
C2185      C2190   1.406       .  A
C2185      H2192   1.084       .  S
C2186      C2187   1.414       .  A
C2187      C2194   1.505       .  S
C2187      C2188   1.389       .  A
C2188      C2189   1.399       .  A
C2188      H2193   1.085       .  S
C2189      C2190   1.416       .  A
C2190      C2191   1.504       .  S
C2191      H2195   1.110       .  S
C2191      H2196   1.109       .  S
C2191      H2197   1.106       .  S
C2194      H2198   1.110       .  S
C2194      H2199   1.103       .  S
C2194      H2200   1.107       .  S
C2201      C2202   1.398       .  A
C2201      C2206   1.405       .  A
C2201      H2208   1.083       .  S
C2202      C2203   1.419       .  A
C2203      C2210   1.504       .  S
C2203      C2204   1.391       .  A
C2204      C2205   1.394       .  A
C2204      H2209   1.083       .  S
C2205      C2206   1.423       .  A
C2206      C2207   1.506       .  S
C2207      H2211   1.107       .  S
C2207      H2212   1.110       .  S
C2207      H2213   1.110       .  S
C2210      H2214   1.105       .  S
C2210      H2215   1.109       .  S
C2210      H2216   1.111       .  S
C2217      C2218   1.406       .  A
C2217      C2222   1.406       .  A
C2217      H2224   1.086       .  S
C2218      C2219   1.409       .  A
C2219      C2226   1.505       .  S
C2219      C2220   1.409       .  A
C2220      C2221   1.409       .  A
C2220      H2225   1.087       .  S
C2221      C2222   1.411       .  A
C2222      C2223   1.507       .  S
C2223      H2227   1.111       .  S
C2223      H2228   1.109       .  S
C2223      H2229   1.110       .  S
C2226      H2230   1.110       .  S
C2226      H2231   1.110       .  S
C2226      H2232   1.111       .  S
C2233      C2234   1.408       .  A
C2233      C2238   1.408       .  A
C2233      H2240   1.075       .  S
C2234      C2235   1.409       .  A
C2235      C2242   1.508       .  S
C2235      C2236   1.405       .  A
C2236      C2237   1.408       .  A
C2236      H2241   1.079       .  S
C2237      C2238   1.407       .  A
C2238      C2239   1.505       .  S
C2239      H2243   1.110       .  S
C2239      H2244   1.111       .  S
C2239      H2245   1.111   1_545  S
C2242      H2246   1.110       .  S
C2242      H2247   1.110       .  S
C2242      H2248   1.110       .  S
C2249      C2250   1.395       .  A
C2249      C2254   1.400       .  A
C2249      H2256   1.085       .  S
C2250      C2251   1.402       .  A
C2251      C2258   1.506       .  S
C2251      C2252   1.394       .  A
C2252      C2253   1.406       .  A
C2252      H2257   1.084       .  S
C2253      C2254   1.421       .  A
C2254      C2255   1.508       .  S
C2255      H2259   1.111       .  S
C2255      H2260   1.110       .  S
C2255      H2261   1.110       .  S
C2258      H2262   1.108       .  S
C2258      H2263   1.111       .  S
C2258      H2264   1.111       .  S
C2265      C2266   1.409       .  A
C2265      C2270   1.396       .  A
C2265      H2272   1.084       .  S
C2266      C2267   1.422       .  A
C2267      C2274   1.508       .  S
C2267      C2268   1.402       .  A
C2268      C2269   1.396       .  A
C2268      H2273   1.083       .  S
C2269      C2270   1.399       .  A
C2270      C2271   1.505       .  S
C2271      H2275   1.111       .  S
C2271      H2276   1.111       .  S
C2271      H2277   1.110       .  S
C2274      H2278   1.109       .  S
C2274      H2279   1.110       .  S
C2274      H2280   1.111       .  S
C2281      C2282   1.397       .  A
C2281      C2286   1.395       .  A
C2281      H2288   1.082       .  S
C2282      C2283   1.405       .  A
C2283      C2284   1.392       .  A
C2284      C2285   1.400       .  A
C2284      H2289   1.079       .  S
C2285      C2286   1.413       .  A
C2286      C2287   1.508       .  S
C2287      H2291   1.110       .  S
C2287      H2292   1.108       .  S
C2287      H2293   1.110       .  S
C2290      H2294   1.111       .  S
C2290      H2296   1.110       .  S
C2297      C2298   1.401       .  A
C2297      C2302   1.392       .  A
C2297      H2304   1.085       .  S
C2298      C2299   1.416       .  A
C2300      H2305   1.086       .  S
C2301      C2302   1.404       .  A
C2302      C2303   1.506       .  S
C2303      H2307   1.111       .  S
C2303      H2308   1.110       .  S
C2303      H2309   1.109       .  S
C2306      H2310   1.110       .  S
C2306      H2311   1.110       .  S
C2306      H2312   1.111       .  S
C2313      C3106   1.400   1_545  A
C2313      C2318   1.391       .  A
C2313      H2320   1.084       .  S
C2314      C3105   1.401       .  A
C2314      C2315   1.415       .  A
C2315      C2322   1.505       .  S
C2315      C2316   1.399       .  A
C2316      C3109   1.397       .  A
C2316      H2321   1.084       .  S
C2317      C3108   1.399       .  A
C2317      C2318   1.405   1_565  A
C2318      C2319   1.502       .  S
C2319      H2323   1.107       .  S
C2319      H2324   1.106       .  S
C2319      H2325   1.110       .  S
C2322      H2326   1.109       .  S
C2322      H2327   1.107       .  S
C2322      H2328   1.109       .  S
C2329      C2330   1.405       .  A
C2329      C2334   1.398       .  A
C2329      H2336   1.084       .  S
C2330      C3123   1.417       .  A
C2331      C2338   1.507       .  S
C2331      C3122   1.416       .  A
C2331      C2332   1.394       .  A
C2332      C2333   1.397       .  A
C2332      H2337   1.087       .  S
C2333      C3126   1.404       .  A
C2334      C2335   1.505       .  S
C2334      C3125   1.404       .  A
C2335      H2339   1.110       .  S
C2335      H2340   1.110       .  S
C2335      H2341   1.106       .  S
C2338      H2342   1.108       .  S
C2338      H2343   1.110       .  S
C2338      H2344   1.111       .  S
C2345      C2346   1.398       .  A
C2345      C2350   1.398       .  A
C2345      H2352   1.085       .  S
C2346      C2347   1.414       .  A
C2347      C2354   1.502       .  S
C2347      C2348   1.400       .  A
C2348      C2349   1.395       .  A
C2348      H2353   1.085       .  S
C2349      C2350   1.411       .  A
C2351      H2355   1.111       .  S
C2351      H2357   1.111       .  S
C2354      H2358   1.110       .  S
C2354      H2359   1.104       .  S
C2354      H2360   1.105       .  S
C2361      C2366   1.401       .  A
C2361      H2368   1.084       .  S
C2362      C2363   1.408       .  A
C2363      C2370   1.505       .  S
C2363      C2364   1.393       .  A
C2364      C2365   1.397       .  A
C2364      H2369   1.086       .  S
C2366      C2367   1.504       .  S
C2367      H2371   1.111       .  S
C2367      H2372   1.110       .  S
C2367      H2373   1.109       .  S
C2370      H2374   1.108       .  S
C2370      H2375   1.110       .  S
C2370      H2376   1.110       .  S
C2377      C2378   1.542       .  S
C2377      C2383   1.538       .  S
C2377      C2381   1.564       .  S
C2377      C2466   1.593       .  S
C2378      H2385   1.086       .  S
C2378      C2379   1.375       .  D
C2379      C2380   1.586       .  S
C2379      C2544   1.540       .  S
C2380      C2384   1.579       .  S
C2380      C2382   1.588       .  S
C2380      H2386   1.110       .  S
C2381      H2387   1.085       .  S
C2381      C2382   1.396       .  D
C2382      C2511   1.566       .  S
C2383      H2388   1.086       .  S
C2383      C2384   1.375       .  D
C2384      C2421   1.536       .  S
C2389      C2390   1.541       .  S
C2389      C2395   1.540       .  S
C2389      C2393   1.532       .  S
C2389      C2431   1.558       .  S
C2390      H2397   1.086       .  S
C2390      C2391   1.373       .  D
C2391      C2392   1.597       .  S
C2391      C2476   1.546       .  S
C2392      C2396   1.610       .  S
C2392      C2394   1.583       .  S
C2392      H2398   1.110       .  S
C2393      H2399   1.086       .  S
C2393      C2394   1.374       .  D
C2394      C2580   1.536       .  S
C2395      H2400   1.086       .  S
C2395      C2396   1.377       .  D
C2396      C2521   1.561       .  S
N2401      N2402   1.321       .  A
N2401      N2407   1.320       .  A
N2402      C2409   1.360       .  A
N2403      N2404   1.323       .  A
N2403     Mn2419   2.252   1_455  S
N2405      N2406   1.314       .  A
N2405     Mn2430   2.137       .  S
N2406      C2410   1.339       .  A
N2407      N2408   1.307       .  A
N2408      C2409   1.335       .  A
C2409      C2710   1.463       .  S
C2410      C2761   1.457       .  S
N2411      N2417   1.312       .  A
N2411      N2808   1.312       .  A
N2412      N2807   1.312       .  A
N2412      C2816   1.351       .  A
N2413      N2414   1.340       .  A
N2413      N2415   1.314       .  A
N2414      C2421   1.368       .  A
N2415      N2416   1.325       .  A
N2415     Mn2837   2.237       .  S
N2416      C2421   1.360       .  A
N2417      N2418   1.317       .  A
N2417     Mn2419   2.160       .  S
N2418      C2420   1.348       .  A
Mn2419    Cl2443   2.533       .  S
C2420      N2808   1.350       .  A
C2420      C2678   1.445       .  S
N2422      N2423   1.330       .  A
N2422      N2428   1.314       .  A
N2422     Mn2826   2.249       .  S
N2423      C2431   1.362       .  A
N2424      N2822   1.311       .  A
N2424      N2425   1.315       .  A
N2424     Mn2442   2.148   1_565  S
N2425      C2432   1.344       .  A
N2426      N2820   1.311       .  A
N2426      N2427   1.316       .  A
N2427      C2828   1.354       .  A
N2428      N2429   1.332       .  A
N2429      C2431   1.365       .  A
Mn2430     N2818   2.258       .  S
C2432      N2823   1.353       .  A
C2432      C2697   1.445       .  S
N2433      N2434   1.317       .  A
N2433      N2439   1.318       .  A
N2433     Mn2441   2.165       .  S
N2434      C2444   1.346       .  A
N2435      N2436   1.309       .  A
N2435      N2437   1.317       .  A
N2436      C2445   1.339       .  A
N2437      N2438   1.321       .  A
N2438      C2445   1.355       .  A
Mn2441     N2811   2.246   1_554  S
C2444      C2742   1.465       .  S
C2445      C2726   1.462       .  S
N2446      N2447   1.315       .  A
N2446      N2452   1.321       .  A
N2446     Mn2871   2.210       .  S
N2447      C2454   1.347       .  A
N2448      N2450   1.327       .  A
N2448      N2449   1.319       .  A
N2448     Mn2464   2.229       .  S
N2449      C2455   1.351       .  A
N2450      N2451   1.314       .  A
N2450     Mn2475   2.164       .  S
N2451      C2455   1.338       .  A
N2452      N2453   1.317       .  A
N2452     Mn2860   2.178       .  S
N2453      C2454   1.349       .  A
C2454      C2681   1.459       .  S
C2455      C2662   1.473       .  S
N2456      N2462   1.311       .  A
N2456      N2457   1.314       .  A
N2456     Mn2882   2.167   1_554  S
N2457      C2465   1.345       .  A
N2458      N2459   1.340       .  A
N2458      N2460   1.315       .  A
N2458     Mn2860   2.291       .  S
N2459      C2466   1.369       .  A
N2460      N2461   1.336       .  A
N2460     Mn2486   2.277       .  S
N2461      C2466   1.370       .  A
N2462      N2463   1.329       .  A
N2462     Mn2464   2.229       .  S
N2463      C2465   1.364       .  A
Mn2464     N2848   2.179   1_554  S
Mn2464     N2854   2.300   1_554  S
Mn2464    Cl2488   2.569       .  S
C2465      C2617   1.482       .  S
N2467      N2468   1.340       .  A
N2467      N2473   1.314       .  A
N2467     Mn2475   2.277       .  S
N2468      C2476   1.371       .  A
N2469      N2471   1.311       .  A
N2469      N2470   1.327       .  A
N2469     Mn2487   2.219       .  S
N2470      C2477   1.363       .  A
N2471      N2472   1.314       .  A
N2471     Mn2871   2.171       .  S
N2472      C2477   1.345       .  A
N2473      N2474   1.332       .  A
N2473     Mn2883   2.270   1_554  S
N2474      C2476   1.364       .  A
Mn2475     N2842   2.211       .  S
Mn2475     N2867   2.174   1_554  S
Mn2475    Cl2488   2.529       .  S
C2477      C2630   1.477       .  S
N2478      N2479   1.312       .  A
N2478      N2484   1.326       .  A
N2478     Mn2486   2.165       .  S
N2479      C2489   1.339       .  A
N2480      N2481   1.314       .  A
N2480      N2482   1.319       .  A
N2480     Mn2883   2.149   1_554  S
N2481      C2490   1.344       .  A
N2482      N2483   1.315       .  A
N2482     Mn2882   2.221   1_554  S
N2483      C2490   1.352       .  A
N2484      N2485   1.320       .  A
N2484     Mn2487   2.211       .  S
N2485      C2489   1.347       .  A
Mn2486     N2852   2.174       .  S
Mn2486     N2878   2.222       .  S
Mn2486    Cl2884   2.527       .  S
Mn2487     N2869   2.273       .  S
Mn2487     N2876   2.166       .  S
Mn2487    Cl2884   2.565       .  S
Cl2488    Mn2882   2.523   1_554  S
Cl2488    Mn2883   2.567   1_554  S
C2489      C2649   1.471       .  S
C2490      C2694   1.459       .  S
N2491      N2492   1.323       .  A
N2491      N2497   1.316       .  A
N2491     Mn2520   2.247   1_655  S
N2492      C2499   1.365       .  A
N2493      N2495   1.317       .  A
N2493      N2494   1.311       .  A
N2493     Mn2509   2.221       .  S
N2494      C2500   1.350       .  A
N2495      N2496   1.319       .  A
N2495     Mn2520   2.136   1_655  S
N2496      C2500   1.344       .  A
N2497      N2498   1.304       .  A
N2497     Mn2509   2.133       .  S
N2498      C2499   1.337       .  A
C2499      C2585   1.458       .  S
C2500      C2665   1.446       .  S
N2501      N2502   1.310       .  A
N2501     Mn2531   2.165       .  S
N2503      N2504   1.333       .  A
N2503      N2505   1.313       .  A
N2503     Mn2509   2.256       .  S
N2504      C2511   1.362       .  A
N2505      N2506   1.346       .  A
N2506      C2511   1.379       .  A
N2507      N2508   1.324       .  A
N2507     Mn2509   2.185       .  S
N2508      C2510   1.353       .  A
C2510      C2745   1.453       .  S
N2512      N2513   1.335       .  A
N2512      N2518   1.315       .  A
N2513      C2521   1.372       .  A
N2514      N2515   1.323       .  A
N2514     Mn2532   2.181       .  S
N2515      C2522   1.353       .  A
N2516      N2517   1.307       .  A
N2516     Mn2520   2.154       .  S
N2518      N2519   1.342       .  A
N2518     Mn2532   2.275       .  S
N2519      C2521   1.367       .  A
C2522      C2758   1.450       .  S
N2523      N2524   1.320       .  A
N2523      N2529   1.322       .  A
N2523     Mn2531   2.162       .  S
N2524      C2534   1.346       .  A
N2525      N2526   1.305       .  A
N2525      N2527   1.319       .  A
N2525     Mn2532   2.130       .  S
N2526      C2535   1.338       .  A
N2527      N2528   1.324       .  A
N2527     Mn2531   2.266       .  S
N2528      C2535   1.367       .  A
N2529      N2530   1.311       .  A
N2529     Mn2532   2.223       .  S
N2530      C2534   1.348       .  A
Mn2531    Cl2533   2.582       .  S
Mn2532    Cl2533   2.521       .  S
C2534      C2646   1.449       .  S
C2535      C2601   1.470       .  S
N2536      N2537   1.330       .  A
N2536      N2542   1.319       .  A
N2536     Mn2565   2.273       .  S
N2537      C2544   1.364       .  A
N2538      N2540   1.312       .  A
N2538      N2539   1.316       .  A
N2538     Mn2554   2.162       .  S
N2539      C2545   1.344       .  A
N2540      N2541   1.328       .  A
N2541      C2545   1.358       .  A
N2542      N2543   1.338       .  A
N2543      C2544   1.364       .  A
C2545      C2633   1.480       .  S
N2546      N2552   1.322       .  A
N2546      N2547   1.321       .  A
N2546     Mn2576   2.201       .  S
N2547      C2555   1.357       .  A
N2548      N2549   1.324       .  A
N2548      N2550   1.320       .  A
N2549      C2556   1.354       .  A
N2550      N2551   1.304       .  A
N2551      C2556   1.337       .  A
N2552      N2553   1.310       .  A
N2552     Mn2554   2.201       .  S
N2553      C2555   1.341       .  A
Mn2554    Cl2578   2.524       .  S
C2555      C2582   1.459       .  S
C2556      C2729   1.441       .  S
N2557      N2558   1.303       .  A
N2557      N2563   1.317       .  A
N2558      C2566   1.337       .  A
N2559      N2561   1.318       .  A
N2559      N2560   1.308       .  A
N2559     Mn2577   2.178       .  S
N2560      C2567   1.334       .  A
N2561      N2562   1.327       .  A
N2561     Mn2565   2.227       .  S
N2562      C2567   1.363       .  A
N2563      N2564   1.324       .  A
N2564      C2566   1.353       .  A
C2566      C2713   1.440       .  S
C2567      C2598   1.466       .  S
N2568      N2569   1.329       .  A
N2568      N2574   1.312       .  A
N2569      C2579   1.358   1_545  A
N2570      N2571   1.322       .  A
N2570      N2572   1.313       .  A
N2571      C2580   1.355       .  A
N2572      N2573   1.343       .  A
N2572     Mn2576   2.287       .  S
N2573      C2580   1.372       .  A
N2574      N2575   1.316   1_545  A
N2574     Mn2577   2.170   1_545  S
N2575      C2579   1.344       .  A
Mn2576    Cl2578   2.567       .  S
C2579      C2614   1.482       .  S
C2581      C2582   1.402       .  A
C2581      C2586   1.404       .  A
C2581      H2588   1.083       .  S
C2582      C2583   1.414       .  A
C2583      C2590   1.508       .  S
C2583      C2584   1.389       .  A
C2584      C2585   1.400       .  A
C2584      H2589   1.085       .  S
C2585      C2586   1.416       .  A
C2586      C2587   1.504       .  S
C2587      H2591   1.110       .  S
C2587      H2592   1.109       .  S
C2587      H2593   1.106       .  S
C2590      H2594   1.110       .  S
C2590      H2595   1.104       .  S
C2590      H2596   1.108       .  S
C2597      C2598   1.396       .  A
C2597      C2602   1.404       .  A
C2597      H2604   1.083       .  S
C2598      C2599   1.420       .  A
C2599      C2606   1.503       .  S
C2599      C2600   1.392       .  A
C2600      C2601   1.393       .  A
C2600      H2605   1.084       .  S
C2601      C2602   1.423       .  A
C2602      C2603   1.505       .  S
C2603      H2607   1.108       .  S
C2603      H2608   1.110       .  S
C2603      H2609   1.111       .  S
C2606      H2610   1.106       .  S
C2606      H2611   1.110       .  S
C2606      H2612   1.111       .  S
C2613      C2614   1.407       .  A
C2613      C2618   1.407       .  A
C2613      H2620   1.087       .  S
C2614      C2615   1.407       .  A
C2615      C2622   1.505       .  S
C2615      C2616   1.407       .  A
C2616      C2617   1.408       .  A
C2616      H2621   1.086       .  S
C2617      C2618   1.411       .  A
C2618      C2619   1.507       .  S
C2619      H2623   1.111       .  S
C2619      H2624   1.109       .  S
C2619      H2625   1.111       .  S
C2622      H2626   1.110   1_565  S
C2622      H2627   1.111   1_565  S
C2622      H2628   1.111       .  S
C2629      C2630   1.409       .  A
C2629      C2634   1.409       .  A
C2629      H2636   1.075       .  S
C2630      C2631   1.409       .  A
C2631      C2638   1.508       .  S
C2631      C2632   1.406       .  A
C2632      C2633   1.408       .  A
C2632      H2637   1.079       .  S
C2633      C2634   1.407       .  A
C2634      C2635   1.505       .  S
C2635      H2639   1.110       .  S
C2635      H2640   1.111       .  S
C2635      H2641   1.111       .  S
C2638      H2642   1.110       .  S
C2638      H2643   1.109       .  S
C2638      H2644   1.110       .  S
C2645      C2646   1.397       .  A
C2645      C2650   1.402       .  A
C2645      H2652   1.085       .  S
C2646      C2647   1.401       .  A
C2647      C2654   1.504       .  S
C2647      C2648   1.393       .  A
C2648      C2649   1.406       .  A
C2648      H2653   1.084       .  S
C2649      C2650   1.422       .  A
C2650      C2651   1.508       .  S
C2651      H2655   1.111       .  S
C2651      H2656   1.111       .  S
C2651      H2657   1.109       .  S
C2654      H2658   1.107       .  S
C2654      H2659   1.110       .  S
C2654      H2660   1.111       .  S
C2661      C2662   1.408       .  A
C2661      C2666   1.395       .  A
C2661      H2668   1.083       .  S
C2662      C2663   1.421       .  A
C2663      C2670   1.508       .  S
C2663      C2664   1.401       .  A
C2664      C2665   1.396       .  A
C2664      H2669   1.084       .  S
C2665      C2666   1.400       .  A
C2666      C2667   1.506       .  S
C2667      H2671   1.111       .  S
C2667      H2672   1.110       .  S
C2667      H2673   1.110       .  S
C2670      H2674   1.109       .  S
C2670      H2675   1.110       .  S
C2670      H2676   1.111       .  S
C2677      C2678   1.397       .  A
C2677      C2682   1.396       .  A
C2677      H2684   1.083       .  S
C2678      C2679   1.405       .  A
C2679      C3082   1.507       .  S
C2679      C2680   1.394       .  A
C2680      C2681   1.401       .  A
C2680      H2685   1.079       .  S
C2681      C2682   1.413       .  A
C2682      C2683   1.507       .  S
C2683      H2687   1.110       .  S
C2683      H2688   1.108       .  S
C2683      H2689   1.111       .  S
C2686      C3075   1.509       .  S
C2686      H2690   1.111       .  S
C2686      H3087   1.110       .  S
C2686      H2692   1.110       .  S
H2691      C3082   1.110       .  S
C2693      C2694   1.401       .  A
C2693      C2698   1.391       .  A
C2693      H2700   1.084       .  S
C2694      C2695   1.417       .  A
C2695      C3098   1.509       .  S
C2695      C3092   1.394       .  A
C2696      C3091   1.395       .  A
C2696      C3093   1.396       .  A
C2696      H2701   1.085       .  S
C2697      C3092   1.396       .  A
C2697      C2698   1.404       .  A
C2698      C2699   1.507       .  S
C2699      H2703   1.111       .  S
C2699      H2704   1.110       .  S
C2699      H2705   1.110       .  S
C2702      C3091   1.509       .  S
C2702      H2706   1.109       .  S
C2702      H2707   1.110       .  S
C2702      H2708   1.111       .  S
C2709      C2714   1.390       .  A
C2709      H2716   1.084       .  S
C2710      C2711   1.418       .  A
C2711      C2718   1.506       .  S
C2711      C2712   1.403       .  A
C2712      H2717   1.084       .  S
C2713      C2714   1.405       .  A
C2714      C2715   1.502       .  S
C2715      H2719   1.105       .  S
C2715      H2720   1.104       .  S
C2715      H2721   1.110       .  S
C2718      H2722   1.109       .  S
C2718      H2723   1.108       .  S
C2718      H2724   1.110       .  S
C2725      C2726   1.405       .  A
C2725      C2730   1.396       .  A
C2725      H2732   1.084       .  S
C2727      C2734   1.509   1_545  S
C2727      C2728   1.393       .  A
C2728      C2729   1.396       .  A
C2728      H2733   1.087   1_545  S
C2730      C2731   1.506       .  S
C2731      H2735   1.111       .  S
C2731      H2736   1.110       .  S
C2731      H2737   1.107       .  S
C2734      H2738   1.110       .  S
C2734      H2739   1.109   1_565  S
C2734      H2740   1.111       .  S
C2741      C2742   1.398       .  A
C2741      C2746   1.398       .  A
C2741      H2748   1.085       .  S
C2742      C2743   1.414       .  A
C2743      C2750   1.504       .  S
C2743      C2744   1.400       .  A
C2744      C2745   1.395       .  A
C2744      H2749   1.085       .  S
C2745      C2746   1.413       .  A
C2747      H2751   1.111       .  S
C2747      H2753   1.110       .  S
C2750      H2754   1.109       .  S
C2750      H2755   1.108       .  S
C2750      H2756   1.107       .  S
C2757      C2762   1.402       .  A
C2757      H2764   1.085       .  S
C2758      C2759   1.409       .  A
C2759      C2766   1.506       .  S
C2759      C2760   1.394       .  A
C2760      C2761   1.397       .  A
C2760      H2765   1.083       .  S
C2762      C2763   1.505       .  S
C2763      H2767   1.111       .  S
C2763      H2768   1.110       .  S
C2763      H2769   1.109       .  S
C2766      H2770   1.108       .  S
C2766      H2771   1.110       .  S
C2766      H2772   1.110       .  S
C2773      C2774   1.545       .  S
C2773      C2779   1.536       .  S
C2773      C2777   1.564       .  S
C2773      C2862   1.596       .  S
C2774      H2781   1.085       .  S
C2774      C2775   1.377       .  D
C2775      C2776   1.590       .  S
C2775      C2940   1.547       .  S
C2776      C2780   1.583       .  S
C2776      C2778   1.592       .  S
C2776      H2782   1.110       .  S
C2777      H2783   1.085       .  S
C2777      C2778   1.396       .  D
C2778      C2907   1.572       .  S
C2779      H2784   1.086       .  S
C2779      C2780   1.374       .  D
C2780      C2817   1.537       .  S
C2785      C2786   1.540       .  S
C2785      C2791   1.545       .  S
C2785      C2789   1.531       .  S
C2785      C2827   1.557       .  S
C2786      H2793   1.086       .  S
C2786      C2787   1.372       .  D
C2787      C2788   1.596       .  S
C2787      C2872   1.545       .  S
C2788      C2792   1.603       .  S
C2788      C2790   1.580       .  S
C2788      H2794   1.110       .  S
C2789      H2795   1.087       .  S
C2789      C2790   1.373       .  D
C2790      C2976   1.531       .  S
C2791      H2796   1.086       .  S
C2791      C2792   1.379       .  D
C2792      C2917   1.556       .  S
N2797      N2798   1.322       .  A
N2797      N2803   1.320       .  A
N2798      C2805   1.359       .  A
N2799      N2800   1.323       .  A
N2799     Mn2815   2.254   1_455  S
N2801      N2802   1.314       .  A
N2801     Mn2826   2.140   1_556  S
N2802      C2806   1.340       .  A
N2803      N2804   1.308       .  A
N2804      C2805   1.335       .  A
C2805      C3106   1.464       .  S
C2806      C3157   1.458       .  S
N2807      N2813   1.312       .  A
N2809      N2810   1.340       .  A
N2809      N2811   1.315       .  A
N2810      C2817   1.368       .  A
N2811      N2812   1.326       .  A
N2812      C2817   1.361       .  A
N2813      N2814   1.315       .  A
N2813     Mn2815   2.149       .  S
N2814      C2816   1.346       .  A
Mn2815    Cl2839   2.531   1_656  S
C2816      C3074   1.441       .  S
N2818      N2819   1.331       .  A
N2818      N2824   1.314       .  A
N2819      C2827   1.365       .  A
N2820      N2821   1.315       .  A
N2820     Mn2838   2.144   1_565  S
N2821      C2828   1.344       .  A
N2822      N2823   1.315       .  A
N2824      N2825   1.331       .  A
N2825      C2827   1.362       .  A
C2828      C3093   1.448       .  S
N2829      N2830   1.316       .  A
N2829      N2835   1.317       .  A
N2829     Mn2837   2.157       .  S
N2830      C2840   1.345       .  A
N2831      N2832   1.309       .  A
N2831      N2833   1.318       .  A
N2832      C2841   1.338       .  A
N2833      N2834   1.322       .  A
N2834      C2841   1.356       .  A
C2840      C3138   1.463       .  S
C2841      C3122   1.463       .  S
N2842      N2843   1.314   1_554  A
N2842      N2848   1.322   1_554  A
N2843      C2850   1.346       .  A
N2844      N2846   1.327       .  A
N2844      N2845   1.318       .  A
N2844     Mn2860   2.228       .  S
N2845      C2851   1.350       .  A
N2846      N2847   1.314       .  A
N2846     Mn2871   2.166       .  S
N2847      C2851   1.339       .  A
N2848      N2849   1.317       .  A
N2849      C2850   1.349       .  A
C2850      C3077   1.456       .  S
C2851      C3058   1.474       .  S
N2852      N2858   1.311       .  A
N2852      N2853   1.315       .  A
N2853      C2861   1.346       .  A
N2854      N2855   1.341       .  A
N2854      N2856   1.315       .  A
N2855      C2862   1.371       .  A
N2856      N2857   1.336       .  A
N2856     Mn2882   2.273       .  S
N2857      C2862   1.369       .  A
N2858      N2859   1.329       .  A
N2858     Mn2860   2.229       .  S
N2859      C2861   1.364       .  A
Mn2860    Cl2884   2.568       .  S
C2861      C3013   1.485       .  S
N2863      N2864   1.340       .  A
N2863      N2869   1.314       .  A
N2863     Mn2871   2.271       .  S
N2864      C2872   1.370       .  A
N2865      N2867   1.310       .  A
N2865      N2866   1.325       .  A
N2865     Mn2883   2.204       .  S
N2866      C2873   1.360       .  A
N2867      N2868   1.314       .  A
N2868      C2873   1.346       .  A
N2869      N2870   1.333       .  A
N2870      C2872   1.365       .  A
Mn2871    Cl2884   2.534       .  S
C2873      C3026   1.470       .  S
N2874      N2875   1.311       .  A
N2874      N2880   1.325       .  A
N2874     Mn2882   2.158       .  S
N2875      C2885   1.338       .  A
N2876      N2877   1.315       .  A
N2876      N2878   1.321       .  A
N2877      C2886   1.346       .  A
N2878      N2879   1.316       .  A
N2879      C2886   1.351       .  A
N2880      N2881   1.319       .  A
N2880     Mn2883   2.213       .  S
N2881      C2885   1.347       .  A
C2885      C3045   1.465       .  S
C2886      C3090   1.462       .  S
N2887      N2888   1.325       .  A
N2887      N2893   1.317       .  A
N2887     Mn2916   2.258   1_655  S
N2888      C2895   1.365       .  A
N2889      N2891   1.318       .  A
N2889      N2890   1.311       .  A
N2889     Mn2905   2.222       .  S
N2890      C2896   1.349       .  A
N2891      N2892   1.320       .  A
N2891     Mn2916   2.141   1_655  S
N2892      C2896   1.345       .  A
N2893      N2894   1.305       .  A
N2893     Mn2905   2.133       .  S
N2894      C2895   1.335       .  A
C2895      C2981   1.459       .  S
C2896      C3061   1.448       .  S
N2897      N2898   1.308       .  A
N2897     Mn2927   2.156       .  S
N2899      N2900   1.333       .  A
N2899      N2901   1.314       .  A
N2899     Mn2905   2.260       .  S
N2900      C2907   1.363       .  A
N2901      N2902   1.348       .  A
N2902      C2907   1.380       .  A
N2903      N2904   1.323       .  A
N2903     Mn2905   2.177       .  S
N2904      C2906   1.351       .  A
C2906      C3141   1.451       .  S
N2908      N2909   1.335       .  A
N2908      N2914   1.315       .  A
N2909      C2917   1.371       .  A
N2910      N2911   1.323       .  A
N2910     Mn2928   2.176       .  S
N2911      C2918   1.352       .  A
N2912      N2913   1.309       .  A
N2912     Mn2916   2.168       .  S
N2914      N2915   1.340       .  A
N2914     Mn2928   2.273       .  S
N2915      C2917   1.366       .  A
C2918      C3154   1.450       .  S
N2919      N2920   1.318       .  A
N2919      N2925   1.322       .  A
N2919     Mn2927   2.152       .  S
N2920      C2930   1.344       .  A
N2921      N2922   1.307       .  A
N2921      N2923   1.320       .  A
N2921     Mn2928   2.131       .  S
N2922      C2931   1.339       .  A
N2923      N2924   1.324       .  A
N2923     Mn2927   2.272       .  S
N2924      C2931   1.366       .  A
N2925      N2926   1.310       .  A
N2925     Mn2928   2.217       .  S
N2926      C2930   1.348       .  A
Mn2927    Cl2929   2.583       .  S
Mn2928    Cl2929   2.518       .  S
C2930      C3042   1.444       .  S
C2931      C2997   1.472       .  S
N2932      N2933   1.332       .  A
N2932      N2938   1.319       .  A
N2932     Mn2961   2.281       .  S
N2933      C2940   1.366       .  A
N2934      N2936   1.312       .  A
N2934      N2935   1.314       .  A
N2934     Mn2950   2.162       .  S
N2935      C2941   1.344       .  A
N2936      N2937   1.328       .  A
N2937      C2941   1.357       .  A
N2938      N2939   1.340       .  A
N2939      C2940   1.365       .  A
C2941      C3029   1.478       .  S
N2942      N2948   1.322       .  A
N2942      N2943   1.320       .  A
N2942     Mn2972   2.205       .  S
N2943      C2951   1.357       .  A
N2944      N2945   1.324       .  A
N2944      N2946   1.320       .  A
N2945      C2952   1.354       .  A
N2946      N2947   1.305       .  A
N2947      C2952   1.338       .  A
N2948      N2949   1.311       .  A
N2948     Mn2950   2.204       .  S
N2949      C2951   1.342       .  A
Mn2950    Cl2974   2.528       .  S
C2951      C2978   1.463       .  S
C2952      C3125   1.442       .  S
N2953      N2954   1.306       .  A
N2953      N2959   1.317       .  A
N2954      C2962   1.338       .  A
N2955      N2957   1.320       .  A
N2955      N2956   1.309       .  A
N2955     Mn2973   2.182   1_565  S
N2956      C2963   1.334       .  A
N2957      N2958   1.327       .  A
N2957     Mn2961   2.235       .  S
N2958      C2963   1.364       .  A
N2959      N2960   1.324       .  A
N2960      C2962   1.352       .  A
C2962      C3109   1.442       .  S
C2963      C2994   1.469       .  S
N2964      N2965   1.329       .  A
N2964      N2970   1.311       .  A
N2965      C2975   1.358   1_545  A
N2966      N2967   1.323       .  A
N2966      N2968   1.312       .  A
N2967      C2976   1.356       .  A
N2968      N2969   1.341       .  A
N2968     Mn2972   2.273       .  S
N2969      C2976   1.369       .  A
N2970      N2971   1.316   1_545  A
N2970     Mn2973   2.176       .  S
N2971      C2975   1.345       .  A
Mn2972    Cl2974   2.562       .  S
C2975      C3010   1.483       .  S
C2977      C2978   1.403       .  A
C2977      C2982   1.404       .  A
C2977      H2984   1.084       .  S
C2978      C2979   1.416       .  A
C2979      C2986   1.507       .  S
C2979      C2980   1.391       .  A
C2980      C2981   1.399       .  A
C2980      H2985   1.085       .  S
C2981      C2982   1.414       .  A
C2982      C2983   1.502       .  S
C2983      H2987   1.110       .  S
C2983      H2988   1.109       .  S
C2983      H2989   1.106       .  S
C2986      H2990   1.110       .  S
C2986      H2991   1.104       .  S
C2986      H2992   1.108       .  S
C2993      C2994   1.397       .  A
C2993      C2998   1.405       .  A
C2993      H3000   1.083       .  S
C2994      C2995   1.421       .  A
C2995      C3002   1.503       .  S
C2995      C2996   1.392       .  A
C2996      C2997   1.393       .  A
C2996      H3001   1.083       .  S
C2997      C2998   1.423       .  A
C2998      C2999   1.505       .  S
C2999      H3003   1.109       .  S
C2999      H3004   1.110       .  S
C2999      H3005   1.110       .  S
C3002      H3006   1.107       .  S
C3002      H3007   1.109       .  S
C3002      H3008   1.111       .  S
C3009      C3010   1.406       .  A
C3009      C3014   1.407       .  A
C3009      H3016   1.086       .  S
C3010      C3011   1.408       .  A
C3011      C3018   1.505   1_565  S
C3011      C3012   1.409       .  A
C3012      C3013   1.409       .  A
C3012      H3017   1.086       .  S
C3013      C3014   1.412       .  A
C3014      C3015   1.507       .  S
C3015      H3019   1.111       .  S
C3015      H3020   1.108       .  S
C3015      H3021   1.110       .  S
C3018      H3022   1.110       .  S
C3018      H3023   1.111       .  S
C3018      H3024   1.111   1_545  S
C3025      C3026   1.408       .  A
C3025      C3030   1.409       .  A
C3025      H3032   1.075       .  S
C3026      C3027   1.408       .  A
C3027      C3034   1.509       .  S
C3027      C3028   1.402       .  A
C3028      C3029   1.408       .  A
C3028      H3033   1.079       .  S
C3029      C3030   1.408       .  A
C3030      C3031   1.504       .  S
C3031      H3035   1.110       .  S
C3031      H3036   1.111       .  S
C3031      H3037   1.111       .  S
C3034      H3038   1.110       .  S
C3034      H3039   1.109       .  S
C3034      H3040   1.110       .  S
C3041      C3042   1.395       .  A
C3041      C3046   1.400       .  A
C3041      H3048   1.085       .  S
C3042      C3043   1.401       .  A
C3043      C3050   1.505       .  S
C3043      C3044   1.392       .  A
C3044      C3045   1.405       .  A
C3044      H3049   1.084       .  S
C3045      C3046   1.421       .  A
C3046      C3047   1.508       .  S
C3047      H3051   1.111       .  S
C3047      H3052   1.110       .  S
C3047      H3053   1.109       .  S
C3050      H3054   1.107       .  S
C3050      H3055   1.111       .  S
C3050      H3056   1.111       .  S
C3057      C3058   1.408       .  A
C3057      C3062   1.395       .  A
C3057      H3064   1.084       .  S
C3058      C3059   1.421       .  A
C3059      C3066   1.507       .  S
C3059      C3060   1.402       .  A
C3060      C3061   1.397       .  A
C3060      H3065   1.084       .  S
C3061      C3062   1.400       .  A
C3062      C3063   1.504       .  S
C3063      H3067   1.111       .  S
C3063      H3068   1.110       .  S
C3063      H3069   1.110       .  S
C3066      H3070   1.109       .  S
C3066      H3071   1.110       .  S
C3066      H3072   1.110       .  S
C3073      C3074   1.396       .  A
C3073      C3078   1.394       .  A
C3073      H3080   1.083       .  S
C3074      C3075   1.405       .  A
C3075      C3076   1.393       .  A
C3076      C3077   1.401       .  A
C3076      H3081   1.079       .  S
C3077      C3078   1.413       .  A
C3078      C3079   1.507       .  S
C3079      H3083   1.109       .  S
C3079      H3084   1.108       .  S
C3079      H3085   1.111       .  S
C3082      H3086   1.111       .  S
C3082      H3088   1.110       .  S
C3089      C3090   1.403       .  A
C3089      C3094   1.393       .  A
C3089      H3096   1.085       .  S
C3090      C3091   1.417       .  A
C3092      H3097   1.086       .  S
C3093      C3094   1.403       .  A
C3094      C3095   1.507       .  S
C3095      H3099   1.111       .  S
C3095      H3100   1.111       .  S
C3095      H3101   1.109       .  S
C3098      H3102   1.109       .  S
C3098      H3103   1.110       .  S
C3098      H3104   1.111       .  S
C3105      C3110   1.392       .  A
C3105      H3112   1.085       .  S
C3106      C3107   1.416       .  A
C3107      C3114   1.505       .  S
C3107      C3108   1.402       .  A
C3108      H3113   1.084       .  S
C3109      C3110   1.404       .  A
C3110      C3111   1.501       .  S
C3111      H3115   1.106       .  S
C3111      H3116   1.104       .  S
C3111      H3117   1.110       .  S
C3114      H3118   1.109       .  S
C3114      H3119   1.108       .  S
C3114      H3120   1.110       .  S
C3121      C3122   1.405       .  A
C3121      C3126   1.398       .  A
C3121      H3128   1.085       .  S
C3123      C3130   1.508   1_545  S
C3123      C3124   1.394       .  A
C3124      C3125   1.397       .  A
C3124      H3129   1.086   1_545  S
C3126      C3127   1.506       .  S
C3127      H3131   1.110       .  S
C3127      H3132   1.110       .  S
C3127      H3133   1.108       .  S
C3130      H3134   1.109       .  S
C3130      H3135   1.109   1_565  S
C3130      H3136   1.111       .  S
C3137      C3138   1.398       .  A
C3137      C3142   1.397       .  A
C3137      H3144   1.084       .  S
C3138      C3139   1.414       .  A
C3139      C3146   1.504       .  S
C3139      C3140   1.398       .  A
C3140      C3141   1.394       .  A
C3140      H3145   1.085       .  S
C3141      C3142   1.412       .  A
C3143      H3147   1.111       .  S
C3143      H3149   1.109       .  S
C3146      H3150   1.109       .  S
C3146      H3151   1.106       .  S
C3146      H3152   1.106       .  S
C3153      C3158   1.401       .  A
C3153      H3160   1.085       .  S
C3154      C3155   1.407       .  A
C3155      C3162   1.504       .  S
C3155      C3156   1.396       .  A
C3156      C3157   1.399       .  A
C3156      H3161   1.084       .  S
C3158      C3159   1.505       .  S
C3159      H3163   1.111       .  S
C3159      H3164   1.111       .  S
C3159      H3165   1.110       .  S
C3162      H3166   1.108       .  S
C3162      H3167   1.111       .  S
C3162      H3168   1.110       .  S
