geometry optimzed in LAMMPS
_audit_creation_date              2020-12-01 
_audit_creation_method            'lammps2cif' 
_symmetry_space_group_name_H-M    'P1' 
_symmetry_Int_Tables_number       1 
_symmetry_cell_setting            triclinic 
loop_ 
_symmetry_equiv_pos_as_xyz 
  x,y,z 
_cell_length_a                    37.18965802 
_cell_length_b                    38.906613497076506 
_cell_length_c                    38.7631419703809 
_cell_angle_alpha                 90.03002159172121 
_cell_angle_beta                  89.43386241770888 
_cell_angle_gamma                 84.19289592752538 
loop_ 
_atom_site_label 
_atom_site_type_symbol 
_atom_site_fract_x 
_atom_site_fract_y 
_atom_site_fract_z 
_atom_site_charge 
C1          C  0.43548281  0.45344948  0.30603108    -0.01300
C2          C  0.23775445  0.25775850  0.30758839    -0.01300
C3          C  0.44072006  0.26075218  0.48301934    -0.01300
C4          C  0.23044714  0.44100485  0.48951423    -0.01300
C5          C  0.48824991  0.00940284  0.23703517    -0.01300
C6          C  0.00703664  0.19593301  0.03889368    -0.01300
C7          C  0.18907843  0.01322039  0.04827489    -0.01300
C8          C  0.19144041  0.20088145  0.23878078    -0.01300
Zr9        Zr  0.40783614  0.44931785  0.47938666     2.17500
O10         O  0.36005907  0.45841404  0.43667514    -0.50200
O11         O  0.40932574  0.38652350  0.47523486    -0.73400
O12         O  0.43149002  0.44721949  0.41950285    -0.80100
O13         O  0.34539321  0.46764808  0.05444875    -0.81900
O14         O  0.49068817  0.45731966  0.42001519    -0.77500
O15         O  0.34503828  0.44709081  0.49726393    -0.89100
O16         O  0.46157983  0.36845321  0.01272164    -0.75100
O17         O  0.46852996  0.42605169  0.49000186    -0.84600
O18         O  0.42183570  0.43394172  0.03711063    -0.84300
O19         O  0.44357494  0.49626511  0.46777398    -0.71000
O20         O  0.39486609  0.50262771  0.01484139    -0.83200
Zr21       Zr  0.50126249  0.51189439  0.06387075     2.26400
Zr22       Zr  0.01748379  0.47949506  0.46544104     2.06300
Zr23       Zr  0.40491345  0.48324710  0.07267630     2.10000
Zr24       Zr  0.48460312  0.41563302  0.04148620     1.78800
O25         O  0.35832227  0.01779485  0.09143475    -0.92000
O26         O  0.03782866  0.36720381  0.01512834    -0.39800
O27         O  0.46800839  0.46393250  0.07805081    -0.76400
O28         O  0.01681429  0.45010061  0.02187428    -0.95100
O29         O  0.49907190  0.01803637  0.00978013    -0.88400
O30         O  0.44235935  0.02230417  0.06169013    -0.91300
C31         C  0.42608511  0.36097889  0.49136201     1.02500
C32         C  0.33175833  0.45897712  0.02565396     1.15400
C33         C  0.46192795  0.45083980  0.40424692     1.06200
O34         O  0.06791039  0.43739634  0.44948648    -0.93400
O35         O  0.07277510  0.50308395  0.48215511    -0.89200
O36         O  0.07502745  0.01063182  0.03794009    -0.82300
C37         C  0.07856789  0.49739668  0.00945463     1.12800
O38         O  0.40032967  0.06802060  0.45476406    -0.95400
Zr39       Zr  0.43757691  0.04029924  0.00322954     1.88900
O40         O  0.51087314  0.06086884  0.06651617    -0.72000
O41         O  0.03540368  0.01643027  0.42588140    -0.51300
O42         O  0.47183158  0.07483030  0.44794984    -0.96000
O43         O  0.38840901  0.08067171  0.02548596    -0.53200
O44         O  0.46928782  0.08450463  0.02887419    -0.72600
C45         C  0.49516663  0.08663181  0.04999869     0.99800
O46         O  0.04382228  0.48387185  0.10188259    -0.61400
O47         O  0.38992116  0.43923585  0.11364915    -0.56200
O48         O  0.48279609  0.00501373  0.12682326    -0.92900
O49         O  0.42458642  0.49934932  0.12948458    -0.91300
O50         O  0.46033192  0.37970844  0.08567853    -0.91600
O51         O  0.02847784  0.38642755  0.07852624    -0.90400
C52         C  0.45358873  0.00181821  0.14373172     1.18600
H53         H  0.40730519  0.41542555  0.04257240     0.34600
H54         H  0.04203911  0.44233282  0.02515085     0.45400
H55         H  0.43609112  0.04138332  0.07731134     0.39000
H56         H  0.44105752  0.50412693  0.44423932     0.35400
H57         H  0.03274037  0.34297020  0.01879628     0.27200
H58         H  0.04783809  0.00318173  0.40663755     0.33600
H59         H  0.46825814  0.09984316  0.45326627     0.39100
H60         H  0.45423508  0.39556287  0.10532981     0.33500
H61         H  0.36986182  0.45068726  0.12779934     0.32400
H62         H  0.36982128  0.03457178  0.10580063     0.34100
H63         H  0.40012208  0.09910141  0.03728091     0.33100
H64         H  0.02383822  0.40431046  0.09664979     0.37100
H65         H  0.05994240  0.46438810  0.09207387     0.29800
H66         H  0.36404788  0.43881986  0.42030671     0.34000
H67         H  0.40441303  0.05220493  0.43477733     0.36900
H68         H  0.37856701  0.42194522  0.09981781     0.29500
H69         H  0.05886764  0.50342329  0.10302558     0.42400
H70         H  0.08330095  0.43490892  0.47021518     0.32400
H71         H  0.04892920  0.38079768  0.48952656     0.40000
H72         H  0.37734073  0.06807344  0.04433992     0.31900
H73         H  0.54425413  0.03310384  0.44111432     0.31900
H74         H  0.36559070  0.47896650  0.42333261     0.32200
Zr75       Zr  0.41441033  0.27174345  0.29553522     2.17500
O76         O  0.36586386  0.31900600  0.29605606    -0.50200
O77         O  0.41480016  0.27079942  0.35890719    -0.73400
O78         O  0.35399468  0.25235040  0.29799191    -0.80100
O79         O  0.47793301  0.34287117  0.27907912    -0.81900
O80         O  0.35784426  0.19575339  0.28239720    -0.77500
O81         O  0.42380801  0.33173571  0.30201669    -0.89100
O82         O  0.46528255  0.23835289  0.37681191    -0.75100
O83         O  0.43062238  0.21375020  0.31300113    -0.84600
O84         O  0.47647074  0.26922141  0.31073240    -0.84300
O85         O  0.40420462  0.23787596  0.24522358    -0.71000
O86         O  0.44583887  0.28911649  0.24481997    -0.83200
Zr87       Zr  0.01334313  0.19317742  0.21744088     2.26400
Zr88       Zr  0.42060506  0.17938110  0.26322621     2.06300
Zr89       Zr  0.00708831  0.28621261  0.25383380     2.10000
Zr90       Zr  0.49319544  0.21088129  0.32700686     1.78800
O91         O  0.01902152  0.32384784  0.20575337    -0.92000
O92         O  0.47450066  0.16368233  0.36213573    -0.39800
O93         O  0.02461236  0.22698357  0.26729465    -0.76400
O94         O  0.48337863  0.17450025  0.27941543    -0.95100
O95         O  0.45319398  0.19458784  0.21260361    -0.88400
O96         O  0.50026107  0.24987636  0.21106881    -0.91300
C97         C  0.43643235  0.25825802  0.38250465     1.02500
C98         C  0.44741183  0.35227519  0.29430550     1.15400
C99         C  0.33985559  0.22404329  0.29261342     1.06200
O100        O  0.40209464  0.13743579  0.30470769    -0.93400
O101        O  0.44890805  0.12143087  0.24898651    -0.89200
O102        O  0.50470416  0.13023446  0.22832857    -0.82300
C103        C  0.48014401  0.11057163  0.23637564     1.12800
O104        O  0.38832215  0.29640460  0.18289571    -0.95400
Zr105      Zr  0.43834634  0.25309038  0.19563274     1.88900
O106        O  0.00686640  0.19827671  0.15426714    -0.72000
O107        O  0.38529302  0.16016799  0.21566106    -0.51300
O108        O  0.38994957  0.23640031  0.15929201    -0.96000
O109        O  0.46483899  0.29777068  0.16273734    -0.53200
O110        O  0.46451195  0.22128143  0.14601437    -0.72600
C111        C  0.49339473  0.20075952  0.14176400     0.99800
O112        O  0.06658491  0.15722932  0.19614502    -0.61400
O113        O  0.04628909  0.31427381  0.29268599    -0.56200
O114        O  0.07444117  0.20988900  0.22882078    -0.92900
O115        O  0.07114846  0.26693103  0.24323448    -0.91300
O116        O  0.04567575  0.22832844  0.34992199    -0.91600
O117        O  0.04922323  0.16800098  0.32344493    -0.90400
C118        C  0.08913299  0.23762523  0.23634013     1.18600
H119        H  0.47984494  0.28479425  0.32955887     0.34600
H120        H  0.49180745  0.15146783  0.28687107     0.45400
H121        H  0.01092372  0.25946777  0.18388526     0.39000
H122        H  0.37917404  0.24103032  0.23850231     0.35400
H123        H  0.44780773  0.16774997  0.36345862     0.27200
H124        H  0.37412447  0.13999079  0.22488334     0.33200
H125        H  0.39308022  0.21082733  0.15905651     0.39100
H126        H  0.03687481  0.25176925  0.35822487     0.33500
H127        H  0.05013213  0.33644380  0.28137786     0.32400
H128        H  0.03073313  0.34297488  0.21631981     0.34100
H129        H  0.45313986  0.31992461  0.17193376     0.33100
H130        H  0.05863840  0.16463010  0.29956076     0.37100
H131        H  0.07291228  0.14006374  0.21453788     0.29800
H132        H  0.35065170  0.31535142  0.31658435     0.34000
H133        H  0.38133375  0.30700106  0.20552464     0.36900
H134        H  0.03125211  0.32092055  0.31331090     0.29500
H135        H  0.05805765  0.14367606  0.17677368     0.42400
H136        H  0.38095761  0.12811868  0.29415005     0.32400
H137        H  0.47927884  0.14270669  0.34767661     0.40000
H138        H  0.45507829  0.29607096  0.13919458     0.31900
H139        H  0.36488978  0.17840001  0.21322697     0.31900
H140        H  0.35057244  0.31508513  0.27594166     0.32200
Zr141      Zr  0.26286213  0.25206447  0.47975584     2.17500
O142        O  0.31183967  0.24236741  0.43742364    -0.50200
O143        O  0.25969100  0.31488190  0.47468619    -0.73400
O144        O  0.24037238  0.25464240  0.42048585    -0.80100
O145        O  0.34206059  0.24269048  0.05511558    -0.81900
O146        O  0.18208494  0.24150866  0.42082948    -0.77500
O147        O  0.32622175  0.25384802  0.49509746    -0.89100
O148        O  0.23101637  0.33938237  0.02373869    -0.75100
O149        O  0.20070351  0.27239774  0.48908765    -0.84600
O150        O  0.26653731  0.27324172  0.04192879    -0.84300
O151        O  0.22964787  0.20326918  0.46885920    -0.71000
O152        O  0.29246979  0.20609277  0.01602880    -0.83200
Zr153      Zr  0.19111471  0.19446723  0.07049156     2.26400
Zr154      Zr  0.16732068  0.22381286  0.47945930     2.06300
Zr155      Zr  0.28548071  0.22304725  0.07544186     2.10000
Zr156      Zr  0.20451122  0.29227160  0.05090375     1.78800
O157        O  0.32819406  0.17320567  0.08852887    -0.92000
O158        O  0.15121897  0.32824801  0.03118722    -0.39800
O159        O  0.22308984  0.24281409  0.08510686    -0.76400
O160        O  0.17033603  0.24502188  0.03852390    -0.95100
O161        O  0.19640568  0.17705598  0.01189592    -0.88400
O162        O  0.25335419  0.17457802  0.06270832    -0.91300
C163        C  0.24199299  0.34006879  0.49090375     1.02500
C164        C  0.35415377  0.25171625  0.02571619     1.15400
C165        C  0.21049532  0.25031238  0.40530947     1.06200
O166        O  0.11810570  0.26723810  0.46459760    -0.93400
O167        O  0.11073818  0.20414204  0.50135216    -0.89200
O168        O  0.13261191  0.18131929  0.05155456    -0.82300
C169        C  0.11092054  0.19133403  0.02732509     1.12800
O170        O  0.30074351  0.13960297  0.46797426    -0.95400
Zr171      Zr  0.25872797  0.15837776  0.00364923     1.88900
O172        O  0.19940461  0.13241967  0.07738237    -0.72000
O173        O  0.15041964  0.18142755  0.43793989    -0.51300
O174        O  0.22824504  0.12406734  0.45547407    -0.96000
O175        O  0.30778782  0.12072517  0.02890882    -0.53200
O176        O  0.22925380  0.11174708  0.02907756    -0.72600
C177        C  0.21147343  0.10791948  0.05705725     0.99800
O178        O  0.13896541  0.20329229  0.10943597    -0.61400
O179        O  0.31603538  0.25901406  0.11518201    -0.56200
O180        O  0.20770665  0.19452196  0.13000239    -0.92900
O181        O  0.26412139  0.21156786  0.13412092    -0.91300
O182        O  0.22866771  0.32266051  0.09909404    -0.91600
O183        O  0.15959345  0.31040070  0.09514440    -0.90400
C184        C  0.23479810  0.20220182  0.14737219     1.18600
H185        H  0.28159301  0.29138865  0.04704600     0.34600
H186        H  0.14526532  0.25192249  0.04407222     0.45400
H187        H  0.26095765  0.15555661  0.07783318     0.39000
H188        H  0.23313677  0.19560478  0.44527787     0.35400
H189        H  0.16053365  0.34815885  0.01942863     0.27200
H190        H  0.15107490  0.15955539  0.45106883     0.33200
H191        H  0.23835782  0.13476403  0.43485861     0.39100
H192        H  0.22975702  0.30599147  0.11845222     0.33500
H193        H  0.30521923  0.28288473  0.11074880     0.32400
H194        H  0.32767471  0.17139604  0.11399719     0.34100
H195        H  0.32998160  0.13162340  0.02305248     0.33100
H196        H  0.15051550  0.28868038  0.10314028     0.37100
H197        H  0.14126499  0.18371587  0.12585388     0.29800
H198        H  0.30795144  0.26127945  0.42037188     0.34000
H199        H  0.29887399  0.15712517  0.44939265     0.36900
H200        H  0.30797389  0.25388275  0.13884871     0.29500
H201        H  0.14271921  0.22394138  0.12338091     0.42400
H202        H  0.12992252  0.28565080  0.45267198     0.32400
H203        H  0.14343376  0.32461127  0.50245582     0.40000
H204        H  0.30935016  0.09939723  0.01478996     0.31900
H205        H  0.12444467  0.18798995  0.43356099     0.31900
H206        H  0.30705418  0.22118470  0.42481543     0.32200
Zr207      Zr  0.25829669  0.44039817  0.30172517     2.17500
O208        O  0.30795182  0.39429082  0.30455774    -0.50200
O209        O  0.25394781  0.44066573  0.36505061    -0.73400
O210        O  0.31880350  0.46018819  0.30340853    -0.80100
O211        O  0.19583803  0.36859533  0.28254920    -0.81900
O212        O  0.31510952  0.51690324  0.28855614    -0.77500
O213        O  0.24928101  0.37986278  0.30589144    -0.89100
O214        O  0.20306187  0.47279363  0.38372902    -0.75100
O215        O  0.24060911  0.49821961  0.31955328    -0.84600
O216        O  0.19581725  0.44211526  0.31627975    -0.84300
O217        O  0.26995516  0.47441220  0.25173391    -0.71000
O218        O  0.22851454  0.42313574  0.25055325    -0.83200
Zr219      Zr  0.16583823  0.01843946  0.23646318     2.26400
Zr220      Zr  0.25904934  0.03159042  0.26934625     2.06300
Zr221      Zr  0.16563396  0.42572519  0.26555898     2.10000
Zr222      Zr  0.17735141  0.50015347  0.33271451     1.78800
O223        O  0.15084718  0.38551666  0.22094658    -0.92000
O224        O  0.20473601  0.04864383  0.37143485    -0.39800
O225        O  0.14696124  0.48444477  0.28215129    -0.76400
O226        O  0.19662943  0.03606613  0.28690122    -0.95100
O227        O  0.22758428  0.01445313  0.21943317    -0.88400
O228        O  0.17542388  0.46174252  0.21659492    -0.91300
C229        C  0.23164058  0.45240882  0.38893839     1.02500
C230        C  0.22600147  0.35919916  0.29775510     1.15400
C231        C  0.33311560  0.48843321  0.29781472     1.06200
O232        O  0.27571549  0.07842476  0.30566573    -0.93400
O233        O  0.23083086  0.08904890  0.25378197    -0.89200
O234        O  0.17518965  0.07968871  0.23445085    -0.82300
C235        C  0.19965013  0.09959364  0.24153932     1.12800
O236        O  0.29223923  0.42090760  0.18921877    -0.95400
Zr237      Zr  0.23773490  0.45920845  0.20167897     1.88900
O238        O  0.16811013  0.01714039  0.17317262    -0.72000
O239        O  0.29775236  0.04748720  0.22195756    -0.51300
O240        O  0.28058224  0.48691714  0.16579884    -0.96000
O241        O  0.22477214  0.40818568  0.16941308    -0.53200
O242        O  0.20599210  0.48292760  0.15131861    -0.72600
C243        C  0.18769923  0.00221811  0.14888177     0.99800
O244        O  0.11078036  0.05579949  0.22367424    -0.61400
O245        O  0.12690716  0.40297847  0.30935205    -0.56200
O246        O  0.10540748  0.00082987  0.24349157    -0.92900
O247        O  0.10282853  0.44288397  0.24933161    -0.91300
O248        O  0.12641954  0.47401530  0.35816716    -0.91600
O249        O  0.13866732  0.04481114  0.35109290    -0.90400
C250        C  0.08492944  0.47198987  0.24203246     1.18600
H251        H  0.19194839  0.42631616  0.33483036     0.34600
H252        H  0.18821105  0.05934802  0.29379258     0.45400
H253        H  0.16092332  0.45536438  0.19754054     0.39000
H254        H  0.29513412  0.47149788  0.24505873     0.35400
H255        H  0.22550460  0.03889165  0.38533203     0.27200
H256        H  0.31897640  0.02993625  0.22215511     0.33200
H257        H  0.30215055  0.48807655  0.18034749     0.39100
H258        H  0.13527790  0.46374496  0.38023807     0.33500
H259        H  0.11470225  0.38507689  0.29722081     0.32400
H260        H  0.13783787  0.36819106  0.23333097     0.34100
H261        H  0.19862359  0.41177616  0.16436564     0.33100
H262        H  0.13086054  0.05517331  0.32872343     0.37100
H263        H  0.10743275  0.07262400  0.24291206     0.29800
H264        H  0.32236323  0.39911232  0.32503192     0.34000
H265        H  0.30023413  0.41171334  0.21200429     0.36900
H266        H  0.14342830  0.38984507  0.32560820     0.29500
H267        H  0.11650861  0.06957009  0.20322674     0.42400
H268        H  0.27925274  0.06807765  0.32886061     0.32400
H269        H  0.21532769  0.06422744  0.35484947     0.40000
H270        H  0.22697219  0.38917106  0.18646812     0.31900
H271        H  0.28484030  0.04260976  0.20058403     0.31900
H272        H  0.32381040  0.39752890  0.28438038     0.32200
C273        C  0.15043549  0.20712184  0.24619298    -0.15300
C274        C  0.12941393  0.23591313  0.23663023    -0.30400
H275        H  0.13694777  0.18604653  0.25712452     0.13800
H276        H  0.14207295  0.25816680  0.22736627     0.14300
C277        C  0.19776811  0.20409146  0.20010901    -0.15300
C278        C  0.23098498  0.20081690  0.18520268    -0.30400
H279        H  0.17418524  0.20856084  0.18372310     0.13800
H280        H  0.25508614  0.19775718  0.20096642     0.14300
C281        C  0.20500633  0.16355484  0.24873783    -0.15300
C282        C  0.18996153  0.13674670  0.23432492    -0.30400
H283        H  0.22677785  0.15860276  0.26712138     0.13800
H284        H  0.16763811  0.14254511  0.21665373     0.14300
C285        C  0.20484963  0.07282934  0.06664368    -0.15300
C286        C  0.19296468  0.05143331  0.04301970    -0.30400
H287        H  0.21024718  0.06510523  0.09305234     0.13800
H288        H  0.18709054  0.06166318  0.01732173     0.14300
C289        C  0.19886808  0.00106161  0.08510693    -0.15300
C290        C  0.17868476  0.01240145  0.11298567    -0.30400
H291        H  0.22242142  0.98252243  0.08873601     0.13800
H292        H  0.15524798  0.03105222  0.10927779     0.14300
C293        C  0.14999056  0.00660576  0.04180015    -0.15300
C294        C  0.13235149  0.01302988  0.01195723    -0.30400
H295        H  0.13518006  0.99587055  0.06287442     0.13800
H296        H  0.13001558  0.51257785  0.98721139     0.14300
C297        C  0.00915183  0.20107276  0.07780310    -0.15300
C298        C  0.50403057  0.18824539  0.10680086    -0.30400
H299        H  0.03342660  0.20941059  0.08924648     0.13800
H300        H  0.52921479  0.17168754  0.10497416     0.14300
C301        C  0.04382100  0.20137477  0.02278266    -0.15300
C302        C  0.07393600  0.18159756  0.03216836    -0.30400
H303        H  0.04624305  0.22358513  0.00621954     0.13800
H304        H  0.07137640  0.16039034  0.04984299     0.14300
C305        C  0.50736415  0.12131086  0.05529833    -0.15300
C306        C  0.49339560  0.14836702  0.03615015    -0.30400
H307        H  0.52732143  0.12439609  0.07486299     0.13800
H308        H  0.97979022  0.15630483  0.00870784     0.14300
C309        C  0.49002411  0.07322727  0.23035590    -0.15300
C310        C  0.47409027  0.04704537  0.24514757    -0.30400
H311        H  0.51329352  0.06673102  0.21351615     0.13800
H312        H  0.45121400  0.05268981  0.26260468     0.14300
C313        C  0.02990356  0.00297546  0.24380770    -0.15300
C314        C  0.04524910  0.47302372  0.23717706    -0.30400
H315        H  0.03566142  0.52496675  0.25144277     0.13800
H316        H  0.04084476  0.94998634  0.23142756     0.14300
C317        C  0.45432778  0.00754861  0.18119082    -0.15300
C318        C  0.48591478  0.00446387  0.19824993    -0.30400
H319        H  0.42861843  0.51660654  0.19415354     0.13800
H320        H  0.51092082  0.99811410  0.18379085     0.14300
C321        C  0.20093548  0.49510940  0.01960004    -0.15300
C322        C  0.20961385  0.46087025  0.01761584    -0.30400
H323        H  0.23097469  0.00800156  0.00491804     0.13800
H324        H  0.19631752  0.44512961  0.03606483     0.14300
C325        C  0.24749437  0.37591545  0.48091409    -0.15300
C326        C  0.22656130  0.40274206  0.49510994    -0.30400
H327        H  0.26944655  0.38006157  0.46335592     0.13800
H328        H  0.20535898  0.39654599  0.51283140     0.14300
C329        C  0.26942846  0.44873046  0.49442784    -0.15300
C330        C  0.29284178  0.45275918  0.02494208    -0.30400
H331        H  0.28762149  0.46234308  0.97200214     0.13800
H332        H  0.27964343  0.44625717  0.04883658     0.14300
C333        C  0.21918191  0.45139890  0.45266501    -0.15300
C334        C  0.23976750  0.44111476  0.42465927    -0.30400
H335        H  0.19486839  0.46899015  0.44915541     0.13800
H336        H  0.26466808  0.42453112  0.42800408     0.14300
C337        C  0.47440039  0.24228560  0.01354610    -0.15300
C338        C  0.47710645  0.20759259  0.01457408    -0.30400
H339        H  0.49812168  0.24776812  0.49921737     0.13800
H340        H  0.46162607  0.19474155  0.99571411     0.14300
C341        C  0.44992051  0.25571848  0.44479684    -0.15300
C342        C  0.42751883  0.26685107  0.41883571    -0.30400
H343        H  0.47541590  0.24081587  0.43822378     0.13800
H344        H  0.40135435  0.28072749  0.42425272     0.14300
C345        C  0.40281972  0.24981869  0.48963750    -0.15300
C346        C  0.39258035  0.25819873  0.02341420    -0.30400
H347        H  0.39677552  0.24590475  0.97096924     0.13800
H348        H  0.39778955  0.26425730  0.54202279     0.14300
C349        C  0.42068372  0.32551068  0.48055939    -0.15300
C350        C  0.44218439  0.29837693  0.49298631    -0.30400
H351        H  0.40736743  0.32402787  0.96717406     0.13800
H352        H  0.46265775  0.30358444  0.51162470     0.14300
C353        C  0.21599131  0.23034710  0.29146475    -0.15300
C354        C  0.21214720  0.22774529  0.25702914    -0.30400
H355        H  0.20360341  0.21226193  0.30804795     0.13800
H356        H  0.22513015  0.24599392  0.24106786     0.14300
C357        C  0.27722541  0.25306896  0.29432672    -0.15300
C358        C  0.30024551  0.22422114  0.29907897    -0.30400
H359        H  0.28807246  0.27501533  0.28209795     0.13800
H360        H  0.29007540  0.20101915  0.30922362     0.14300
C361        C  0.23840854  0.25405604  0.34702529    -0.15300
C362        C  0.20852609  0.25507246  0.36722499    -0.30400
H363        H  0.26459822  0.25018192  0.35946364     0.13800
H364        H  0.18208506  0.25778352  0.35529287     0.14300
C365        C  0.22080878  0.29442073  0.29803185    -0.15300
C366        C  0.23655261  0.32262847  0.30777477    -0.30400
H367        H  0.19680037  0.29765999  0.28213202     0.13800
H368        H  0.26070985  0.31844352  0.32343179     0.14300
C369        C  0.45790967  0.48087129  0.29020523    -0.15300
C370        C  0.46277835  0.48415710  0.25561146    -0.30400
H371        H  0.47088708  0.49784184  0.30734844     0.13800
H372        H  0.45188301  0.96630421  0.23831308     0.14300
C373        C  0.43664700  0.38866676  0.30489239    -0.15300
C374        C  0.45182182  0.41704587  0.29468713    -0.30400
H375        H  0.41279203  0.39255093  0.32145438     0.13800
H376        H  0.47548218  0.41407571  0.27785586     0.14300
C377        C  0.43495395  0.45519598  0.34576274    -0.15300
C378        C  0.46428678  0.44882132  0.36583342    -0.30400
H379        H  0.40897771  0.46090301  0.35876500     0.13800
H380        H  0.49077898  0.44392302  0.35372157     0.14300
C381        C  0.39581268  0.45939638  0.29423142    -0.15300
C382        C  0.37299736  0.48780193  0.30226099    -0.30400
H383        H  0.38448148  0.43831178  0.28111963     0.13800
H384        H  0.38359464  0.51016286  0.31365114     0.14300
C385        C  0.42517128  0.44502207  0.80809227    -0.01300
C386        C  0.25260301  0.25662890  0.81148363    -0.01300
C387        C  0.44956504  0.26358971  0.98830696    -0.01300
C388        C  0.23594923  0.44284063  0.99101320    -0.01300
C389        C  0.49303940  0.00689810  0.73593098    -0.01300
C390        C  0.99707366  0.19254773  0.53839489    -0.01300
C391        C  0.18251919  0.01092149  0.54941749    -0.01300
C392        C  0.19924812  0.20252002  0.74286773    -0.01300
Zr393      Zr  0.41261994  0.45292451  0.97924297     2.17500
O394        O  0.36247436  0.45259751  0.93903439    -0.50200
O395        O  0.41621932  0.38948400  0.97761617    -0.73400
O396        O  0.43137057  0.45105655  0.91882920    -0.80100
O397        O  0.33736371  0.46063076  0.55420866    -0.81900
O398        O  0.48985588  0.46261883  0.91381878    -0.77500
O399        O  0.34981980  0.45440424  0.99734407    -0.89100
O400        O  0.44772266  0.36389568  0.51636006    -0.75100
O401        O  0.47519733  0.43359938  0.98325275    -0.84600
O402        O  0.40986633  0.43167320  0.53844155    -0.84300
O403        O  0.44322640  0.50286451  0.96508166    -0.71000
O404        O  0.38929179  0.49994830  0.51354427    -0.83200
Zr405      Zr  0.49010271  0.50465352  0.57128371     2.26400
Zr406      Zr  0.00658522  0.47072337  0.96430581     2.06300
Zr407      Zr  0.39293314  0.48206749  0.57261922     2.10000
Zr408      Zr  0.47015776  0.40907857  0.54921521     1.78800
O409        O  0.37165628  0.03508921  0.58274776    -0.92000
O410        O  0.05136463  0.38052621  0.51493124    -0.39800
O411        O  0.45359534  0.45886866  0.58392740    -0.76400
O412        O  0.02642263  0.46049576  0.52410305    -0.95100
O413        O  0.50633869  0.02282575  0.50329928    -0.88400
O414        O  0.45198753  0.02992539  0.55572787    -0.91300
C415        C  0.43637941  0.36449245  0.99143054     1.02500
C416        C  0.32591337  0.45078714  0.52516481     1.15400
C417        C  0.46021918  0.45436126  0.90119401     1.06200
O418        O  0.04834744  0.42378213  0.94149775    -0.93400
O419        O  0.06583597  0.48658544  0.98118735    -0.89200
O420        O  0.06881959  0.00249064  0.54047803    -0.82300
C421        C  0.08509334  0.51154417  0.51134951     1.12800
O422        O  0.39197132  0.05947611  0.96091565    -0.95400
Zr423      Zr  0.44545180  0.04687715  0.49696166     1.88900
O424        O  0.51710212  0.06730447  0.56281109    -0.72000
O425        O  0.03626660  0.02467948  0.92048833    -0.51300
O426        O  0.46252169  0.07116356  0.95537973    -0.96000
O427        O  0.39692476  0.08785818  0.51951354    -0.53200
O428        O  0.47794893  0.09051615  0.52254276    -0.72600
C429        C  0.50206767  0.09292629  0.54550405     0.99800
O430        O  0.05400971  0.51075380  0.60048141    -0.61400
O431        O  0.37215767  0.44544916  0.61818684    -0.56200
O432        O  0.49275761  0.00824667  0.62257356    -0.92900
O433        O  0.40662998  0.49959980  0.63061481    -0.91300
O434        O  0.43732341  0.37680498  0.59088154    -0.91600
O435        O  0.03643597  0.39897633  0.58434101    -0.90400
C436        C  0.46285031  0.00656192  0.63943599     1.18600
H437        H  0.39378217  0.41411328  0.54275488     0.34600
H438        H  0.05174139  0.45377946  0.52811189     0.45400
H439        H  0.44671625  0.04928358  0.57121127     0.39000
H440        H  0.43776339  0.51058995  0.94187205     0.35400
H441        H  0.04986735  0.35609686  0.52142180     0.27200
H442        H  0.04297081  0.04436321  0.93440256     0.33600
H443        H  0.48688242  0.07596197  0.96293155     0.39100
H444        H  0.44082971  0.35249071  0.58294262     0.33500
H445        H  0.34804520  0.45662638  0.62508924     0.32400
H446        H  0.35769871  0.03988814  0.56135860     0.34100
H447        H  0.40172422  0.11044552  0.50966316     0.33100
H448        H  0.03861623  0.42181684  0.59496343     0.37100
H449        H  0.04684824  0.53043954  0.61613774     0.29800
H450        H  0.36753411  0.43131483  0.92504367     0.34000
H451        H  0.38575101  0.03793110  0.94986271     0.36900
H452        H  0.36720680  0.42378331  0.60656741     0.29500
H453        H  0.05306189  0.48983205  0.61485825     0.42400
H454        H  0.06448236  0.43517000  0.92565629     0.32400
H455        H  0.03810396  0.37003254  0.98975419     0.40000
H456        H  0.40195242  0.09003089  0.54439639     0.31900
H457        H  0.52168019  0.01800229  0.92332600     0.31900
H458        H  0.36477826  0.47192191  0.92280364     0.32200
Zr459      Zr  0.42876948  0.27153378  0.80129453     2.17500
O460        O  0.38080858  0.31736937  0.81460590    -0.50200
O461        O  0.43330440  0.27225118  0.86399879    -0.73400
O462        O  0.36831499  0.25057118  0.80443288    -0.80100
O463        O  0.49383387  0.33835996  0.77098297    -0.81900
O464        O  0.37247930  0.19266186  0.79424445    -0.77500
O465        O  0.43854455  0.33302977  0.79479327    -0.89100
O466        O  0.48054704  0.23565945  0.88262009    -0.75100
O467        O  0.44597753  0.21393917  0.82034824    -0.84600
O468        O  0.49170884  0.26785761  0.81396480    -0.84300
O469        O  0.41547653  0.23490021  0.75379360    -0.71000
O470        O  0.45816812  0.28594201  0.74851022    -0.83200
Zr471      Zr  0.02496457  0.19188444  0.72224947     2.26400
Zr472      Zr  0.43399601  0.17698781  0.77313679     2.06300
Zr473      Zr  0.01429673  0.28546178  0.75802832     2.10000
Zr474      Zr  0.50917518  0.20994830  0.83157012     1.78800
O475        O  0.02899299  0.32729162  0.71472304    -0.92000
O476        O  0.49436980  0.16013788  0.86509495    -0.39800
O477        O  0.03161249  0.22626214  0.77266453    -0.76400
O478        O  0.49751512  0.17244475  0.78503078    -0.95100
O479        O  0.46307357  0.19063037  0.72010517    -0.88400
O480        O  0.50917810  0.24525138  0.71340994    -0.91300
C481        C  0.45325730  0.25786363  0.88783707     1.02500
C482        C  0.46361646  0.35103853  0.78365964     1.15400
C483        C  0.35439787  0.22156578  0.80192280     1.06200
O484        O  0.42763575  0.13991142  0.82290607    -0.93400
O485        O  0.45938469  0.11926624  0.75479539    -0.89200
O486        O  0.51414560  0.12704989  0.73096908    -0.82300
C487        C  0.48938315  0.10796968  0.73997892     1.12800
O488        O  0.39825937  0.29460032  0.69138259    -0.95400
Zr489      Zr  0.44614429  0.24839573  0.70208617     1.88900
O490        O  0.03021372  0.19717525  0.65985078    -0.72000
O491        O  0.39189808  0.15060146  0.73604881    -0.51300
O492        O  0.39285366  0.22680669  0.67718790    -0.96000
O493        O  0.46607407  0.28760933  0.65839017    -0.53200
O494        O  0.46963103  0.21508511  0.65326705    -0.72600
C495        C  0.50013887  0.19806341  0.64670537     0.99800
O496        O  0.08108899  0.15404769  0.71570887    -0.61400
O497        O  0.05260902  0.30875785  0.80107326    -0.56200
O498        O  0.08439740  0.21105879  0.73507992    -0.92900
O499        O  0.07875403  0.26875397  0.74687730    -0.91300
O500        O  0.04207758  0.23005823  0.85733761    -0.91600
O501        O  0.05111813  0.16502114  0.82501345    -0.90400
C502        C  0.09779945  0.23966908  0.74161176     1.18600
H503        H  0.49646553  0.28415054  0.83175644     0.34600
H504        H  0.50618042  0.14927307  0.79192538     0.45400
H505        H  0.02467567  0.25843605  0.68894018     0.39000
H506        H  0.39028516  0.23748974  0.74764575     0.35400
H507        H  0.50737638  0.13965523  0.85373129     0.27200
H508        H  0.37879994  0.13585800  0.75159906     0.33200
H509        H  0.39610855  0.22898201  0.65192606     0.39100
H510        H  0.04755867  0.21215992  0.87520270     0.33500
H511        H  0.03638020  0.32533723  0.81482285     0.32400
H512        H  0.03787119  0.34634200  0.72812297     0.34100
H513        H  0.46371951  0.31067792  0.66945232     0.33100
H514        H  0.07025238  0.17504594  0.81152201     0.37100
H515        H  0.08032812  0.13627012  0.73390939     0.29800
H516        H  0.36876251  0.30988991  0.83582019     0.34000
H517        H  0.38846432  0.30121140  0.71456121     0.36900
H518        H  0.05899990  0.28923873  0.81698702     0.29500
H519        H  0.07896788  0.14155087  0.69368471     0.42400
H520        H  0.40859104  0.12518492  0.81635001     0.32400
H521        H  0.50686956  0.16213303  0.88732973     0.40000
H522        H  0.44715463  0.28901812  0.64049266     0.31900
H523        H  0.37364569  0.16971792  0.72946208     0.31900
H524        H  0.36267690  0.31649805  0.79616995     0.32200
Zr525      Zr  0.27199681  0.25628064  0.98279597     2.17500
O526        O  0.31939580  0.25414387  0.93851598    -0.50200
O527        O  0.27183770  0.31886631  0.98292928    -0.73400
O528        O  0.24984039  0.25934844  0.92353136    -0.80100
O529        O  0.33436969  0.23979214  0.55166511    -0.81900
O530        O  0.19142954  0.24691282  0.92184920    -0.77500
O531        O  0.33520247  0.25570743  0.99819396    -0.89100
O532        O  0.21985003  0.33647376  0.51582867    -0.75100
O533        O  0.20968656  0.27630035  0.99155344    -0.84600
O534        O  0.25797069  0.27178190  0.53811223    -0.84300
O535        O  0.23941914  0.20770329  0.96943761    -0.71000
O536        O  0.28269237  0.20317108  0.51501734    -0.83200
Zr537      Zr  0.18275814  0.19424867  0.57276336     2.26400
Zr538      Zr  0.17681383  0.22748403  0.97943869     2.06300
Zr539      Zr  0.27729370  0.22314568  0.57344296     2.10000
Zr540      Zr  0.19585948  0.29083030  0.54766274     1.78800
O541        O  0.32598697  0.18049518  0.59136317    -0.92000
O542        O  0.14277212  0.32703378  0.52787363    -0.39800
O543        O  0.21526453  0.24305521  0.58382772    -0.76400
O544        O  0.16120189  0.24324534  0.53823317    -0.95100
O545        O  0.18670161  0.17499395  0.51451164    -0.88400
O546        O  0.24472583  0.17413935  0.56363703    -0.91300
C547        C  0.25449429  0.34347717  0.00009406     1.02500
C548        C  0.34587500  0.24906670  0.52218697     1.15400
C549        C  0.22052954  0.25516076  0.90741906     1.06200
O550        O  0.12637263  0.26795161  0.96104754    -0.93400
O551        O  0.11929019  0.20927059  0.00104247    -0.89200
O552        O  0.12302087  0.18214525  0.55485341    -0.82300
C553        C  0.10198934  0.18884518  0.52920411     1.12800
O554        O  0.30475899  0.14651352  0.95883851    -0.95400
Zr555      Zr  0.24843327  0.15525819  0.50513532     1.88900
O556        O  0.19013567  0.13198844  0.57935788    -0.72000
O557        O  0.16400974  0.18271433  0.93871037    -0.51300
O558        O  0.24039313  0.12329664  0.95611703    -0.96000
O559        O  0.29235100  0.11148904  0.52991518    -0.53200
O560        O  0.21400280  0.11120008  0.52852000    -0.72600
C561        C  0.19865273  0.10752258  0.55778185     0.99800
O562        O  0.13798381  0.20161973  0.61941159    -0.61400
O563        O  0.29424727  0.26919750  0.61094441    -0.56200
O564        O  0.20318164  0.19711048  0.63187279    -0.92900
O565        O  0.26256789  0.20639143  0.63204397    -0.91300
O566        O  0.21952447  0.32725113  0.59140246    -0.91600
O567        O  0.15321211  0.30600733  0.59465277    -0.90400
C568        C  0.23299696  0.20068306  0.64733225     1.18600
H569        H  0.27294500  0.29028066  0.54201955     0.34600
H570        H  0.13618081  0.25043937  0.54373586     0.45400
H571        H  0.25264865  0.15578256  0.57941673     0.39000
H572        H  0.24333276  0.20052449  0.94574150     0.35400
H573        H  0.14835337  0.35103235  0.53206286     0.27200
H574        H  0.15126709  0.16614035  0.95242225     0.33200
H575        H  0.24946264  0.09927251  0.96219935     0.39100
H576        H  0.20802869  0.35082344  0.58658093     0.33500
H577        H  0.28074057  0.26716283  0.63285525     0.32400
H578        H  0.34294512  0.19387297  0.60400117     0.34100
H579        H  0.28167507  0.10464061  0.55205442     0.33100
H580        H  0.15137799  0.28403880  0.60713320     0.37100
H581        H  0.11778498  0.21760366  0.61051098     0.29800
H582        H  0.31407017  0.27501166  0.92409011     0.34000
H583        H  0.32263301  0.16318655  0.96320121     0.36900
H584        H  0.31978908  0.26233634  0.61692265     0.29500
H585        H  0.12806971  0.17904064  0.62179028     0.42400
H586        H  0.13758708  0.28825592  0.95218290     0.32400
H587        H  0.14147225  0.31481168  0.01238690     0.40000
H588        H  0.31291906  0.12421618  0.53670949     0.31900
H589        H  0.14524395  0.19409588  0.92341961     0.31900
H590        H  0.31553251  0.23438038  0.92334952     0.32200
Zr591      Zr  0.24962385  0.42973082  0.80225262     2.17500
O592        O  0.29839550  0.38342803  0.80952802    -0.50200
O593        O  0.24809126  0.42934532  0.86559680    -0.73400
O594        O  0.30983187  0.45107306  0.80333498    -0.80100
O595        O  0.18094292  0.36393456  0.77576212    -0.81900
O596        O  0.30626943  0.50902957  0.79339426    -0.77500
O597        O  0.23727914  0.36839685  0.79654483    -0.89100
O598        O  0.20181305  0.46686818  0.88555756    -0.75100
O599        O  0.23443169  0.48790799  0.82107740    -0.84600
O600        O  0.18705435  0.43460659  0.81750881    -0.84300
O601        O  0.26221972  0.46625791  0.75406577    -0.71000
O602        O  0.21860199  0.41607820  0.75074664    -0.83200
Zr603      Zr  0.16487942  0.02003752  0.73769701     2.26400
Zr604      Zr  0.25784565  0.03047031  0.77344359     2.06300
Zr605      Zr  0.15571470  0.42249220  0.76590688     2.10000
Zr606      Zr  0.17184665  0.49287778  0.83555980     1.78800
O607        O  0.13760552  0.38447704  0.72070090    -0.92000
O608        O  0.19720912  0.04385080  0.87641677    -0.39800
O609        O  0.13946506  0.48054999  0.78462106    -0.76400
O610        O  0.19493345  0.03509244  0.78943600    -0.95100
O611        O  0.22713938  0.01527355  0.72224267    -0.88400
O612        O  0.16743532  0.45801566  0.71741404    -0.91300
C613        C  0.22915485  0.44464742  0.89015739     1.02500
C614        C  0.21140683  0.35061734  0.78701212     1.15400
C615        C  0.32395817  0.47995849  0.80040801     1.06200
O616        O  0.27460762  0.06753839  0.82002386    -0.93400
O617        O  0.23121721  0.08898661  0.75933787    -0.89200
O618        O  0.17640561  0.08133514  0.73672474    -0.82300
C619        C  0.20101948  0.10060409  0.74572272     1.12800
O620        O  0.28221438  0.41026894  0.69470890    -0.95400
Zr621      Zr  0.23030684  0.45305968  0.70358421     1.88900
O622        O  0.16547275  0.01710296  0.67445292    -0.72000
O623        O  0.29619076  0.05401435  0.72990448    -0.51300
O624        O  0.27786996  0.47677732  0.67018608    -0.96000
O625        O  0.20940585  0.40886564  0.66624190    -0.53200
O626        O  0.20600818  0.48288280  0.65368126    -0.72600
C627        C  0.18507793  0.00235175  0.65005431     0.99800
O628        O  0.11638035  0.06621742  0.72831614    -0.61400
O629        O  0.11845788  0.40073280  0.81141930    -0.56200
O630        O  0.10425150  0.00126689  0.74130430    -0.92900
O631        O  0.09375419  0.43957633  0.75067349    -0.91300
O632        O  0.12603972  0.46903220  0.87107313    -0.91600
O633        O  0.13182279  0.03904456  0.85125431    -0.90400
C634        C  0.07648757  0.46903864  0.74477632     1.18600
H635        H  0.18237799  0.41850742  0.83558619     0.34600
H636        H  0.18661685  0.05825295  0.79680878     0.45400
H637        H  0.15308554  0.45248914  0.69791040     0.39000
H638        H  0.28729387  0.46321571  0.74702124     0.35400
H639        H  0.22218071  0.03703062  0.88423028     0.27200
H640        H  0.28032793  0.05907414  0.70978971     0.33200
H641        H  0.29312048  0.48693623  0.68746805     0.39100
H642        H  0.12531538  0.48247633  0.89282612     0.33500
H643        H  0.10437280  0.42158464  0.82100948     0.32400
H644        H  0.11756536  0.37289414  0.73102313     0.34100
H645        H  0.21615823  0.38674167  0.67825958     0.33100
H646        H  0.12227396  0.04725147  0.82863340     0.37100
H647        H  0.10165307  0.05838384  0.70924145     0.29800
H648        H  0.31163391  0.38960073  0.83031196     0.34000
H649        H  0.28638214  0.40904573  0.66945114     0.36900
H650        H  0.10042952  0.38827634  0.79920633     0.29500
H651        H  0.10055784  0.06661051  0.74904961     0.42400
H652        H  0.25208198  0.08212425  0.82613289     0.32400
H653        H  0.19935481  0.06421206  0.86151992     0.40000
H654        H  0.22541078  0.40816385  0.64562928     0.31900
H655        H  0.30079873  0.07699228  0.73884491     0.31900
H656        H  0.31537661  0.38569875  0.79000970     0.32200
C657        C  0.15911026  0.21077489  0.75306848    -0.15300
C658        C  0.13794728  0.23902848  0.74232524    -0.30400
H659        H  0.14568637  0.19063320  0.76584730     0.13800
H660        H  0.15026636  0.26052275  0.73087968     0.14300
C661        C  0.20197093  0.20524097  0.70361009    -0.15300
C662        C  0.23299747  0.19884773  0.68543990    -0.30400
H663        H  0.17718550  0.21170877  0.68931821     0.13800
H664        H  0.25848339  0.19333970  0.69877995     0.14300
C665        C  0.21094296  0.16435661  0.75224608    -0.15300
C666        C  0.19294143  0.13842991  0.73928399    -0.30400
H667        H  0.23385198  0.15815128  0.76908298     0.13800
H668        H  0.16978541  0.14556085  0.72294568     0.14300
C669        C  0.19213879  0.07248252  0.56782222    -0.15300
C670        C  0.18154321  0.04995045  0.54447282    -0.30400
H671        H  0.19895941  0.06520863  0.59404445     0.13800
H672        H  0.17437288  0.05971592  0.51887813     0.14300
C673        C  0.19417006  0.99994718  0.58607952    -0.15300
C674        C  0.17403435  0.01046332  0.61422999    -0.30400
H675        H  0.21936340  0.98358703  0.58944572     0.13800
H676        H  0.14903849  0.02708795  0.61072795     0.14300
C677        C  0.14471602  0.99989080  0.54347161    -0.15300
C678        C  0.12623384  0.00441917  0.51381802    -0.30400
H679        H  0.13114174  0.98864256  0.56506291     0.13800
H680        H  0.13708212  0.52728846  0.49054283     0.14300
C681        C  0.99279898  0.19613947  0.57729819    -0.15300
C682        C  0.50877009  0.18877631  0.61063384    -0.30400
H683        H  0.96548847  0.19439236  0.58714744     0.13800
H684        H  0.53530505  0.17547488  0.60548357     0.14300
C685        C  0.03518101  0.19838042  0.52505487    -0.15300
C686        C  0.06527262  0.17806677  0.53353560    -0.30400
H687        H  0.03838276  0.22142493  0.50991207     0.13800
H688        H  0.06308854  0.15594642  0.55000030     0.14300
C689        C  0.51221969  0.12798994  0.55284400    -0.15300
C690        C  0.49510809  0.15575549  0.53681999    -0.30400
H691        H  0.53213525  0.13079680  0.57247595     0.13800
H692        H  0.96778260  0.15438301  0.50788777     0.14300
C693        C  0.49746366  0.07068686  0.73220036    -0.15300
C694        C  0.47988412  0.04460178  0.74513871    -0.30400
H695        H  0.52081004  0.06402530  0.71549879     0.13800
H696        H  0.45674444  0.05033623  0.76225511     0.14300
C697        C  0.02848963  0.00414435  0.74291876    -0.15300
C698        C  0.03694622  0.47011228  0.74086548    -0.30400
H699        H  0.02672495  0.52026499  0.76013517     0.13800
H700        H  0.03871925  0.95110585  0.73073843     0.14300
C701        C  0.46239282  0.01011799  0.67753839    -0.15300
C702        C  0.49238854  0.00351021  0.69643520    -0.30400
H703        H  0.41031865  0.51578237  0.69636071     0.13800
H704        H  0.51767532  0.99642281  0.68265648     0.14300
C705        C  0.20510604  0.49542190  0.52130893    -0.15300
C706        C  0.20565527  0.46123527  0.51635553    -0.30400
H707        H  0.22378145  0.01161048  0.50582827     0.13800
H708        H  0.18831467  0.44766755  0.53319401     0.14300
C709        C  0.26132394  0.37929166  0.99231659    -0.15300
C710        C  0.23418224  0.40447938  0.99671213    -0.30400
H711        H  0.28766388  0.38482025  0.98276125     0.13800
H712        H  0.20744094  0.39666548  0.00244701     0.14300
C713        C  0.27424935  0.45378649  0.99506751    -0.15300
C714        C  0.28788110  0.44335125  0.52372855    -0.30400
H715        H  0.28319415  0.45989884  0.47291291     0.13800
H716        H  0.27465272  0.43460796  0.54675749     0.14300
C717        C  0.22287875  0.45086856  0.95425664    -0.15300
C718        C  0.24023802  0.43629495  0.92610015    -0.30400
H719        H  0.19893894  0.46893927  0.95071041     0.13800
H720        H  0.26408518  0.41813953  0.92958482     0.14300
C721        C  0.47118159  0.24002634  0.50330821    -0.15300
C722        C  0.46699020  0.21413050  0.52556795    -0.30400
H723        H  0.48969348  0.25532122  0.03241352     0.13800
H724        H  0.44004411  0.20635310  0.52954126     0.14300
C725        C  0.46201004  0.25508566  0.95131604    -0.15300
C726        C  0.44328054  0.26762374  0.92360881    -0.30400
H727        H  0.48624081  0.23737530  0.94725081     0.13800
H728        H  0.41860258  0.28456910  0.92712787     0.14300
C729        C  0.41068441  0.25505574  0.99320299    -0.15300
C730        C  0.38443567  0.25508580  0.51950208    -0.30400
H731        H  0.38890026  0.23900280  0.46827220     0.13800
H732        H  0.40628123  0.26527598  0.04659666     0.14300
C733        C  0.43041569  0.32846122  0.98282323    -0.15300
C734        C  0.45257042  0.30173711  0.99541624    -0.30400
H735        H  0.39936968  0.32194179  0.46253557     0.13800
H736        H  0.47455429  0.30775800  0.01190070     0.14300
C737        C  0.22724038  0.23230150  0.79413783    -0.15300
C738        C  0.22339412  0.22822779  0.75965101    -0.30400
H739        H  0.21230434  0.21623955  0.81083442     0.13800
H740        H  0.23844285  0.24402717  0.74278605     0.14300
C741        C  0.29195141  0.24929918  0.79898538    -0.15300
C742        C  0.31476759  0.22158744  0.80768319    -0.30400
H743        H  0.30373545  0.26982070  0.78505114     0.13800
H744        H  0.30450073  0.19955163  0.82020348     0.14300
C745        C  0.25114041  0.25182163  0.85058405    -0.15300
C746        C  0.22057755  0.25884826  0.86947066    -0.30400
H747        H  0.27600952  0.24352981  0.86407591     0.13800
H748        H  0.19507687  0.26591967  0.85659471     0.14300
C749        C  0.24376376  0.29559757  0.80623809    -0.15300
C750        C  0.21629993  0.31211580  0.78882076    -0.30400
H751        H  0.26217567  0.31150228  0.81895377     0.13800
H752        H  0.19640885  0.29753944  0.77677820     0.14300
C753        C  0.45158744  0.46525191  0.78679142    -0.15300
C754        C  0.44258766  0.48752790  0.76065280    -0.30400
H755        H  0.47976809  0.46109772  0.79401126     0.13800
H756        H  0.45574796  0.96409061  0.73608963     0.14300
C757        C  0.45810451  0.38909131  0.78468847    -0.15300
C758        C  0.43381731  0.40592864  0.80591723    -0.30400
H759        H  0.47518887  0.40323051  0.76820079     0.13800
H760        H  0.41769831  0.39067121  0.82244300     0.14300
C761        C  0.42814920  0.45408224  0.84610607    -0.15300
C762        C  0.45922446  0.44847475  0.86372752    -0.30400
H763        H  0.40384754  0.46399196  0.86018544     0.13800
H764        H  0.48426420  0.43951114  0.85042929     0.14300
C765        C  0.38560007  0.45114044  0.79727263    -0.15300
C766        C  0.36344589  0.47970151  0.80468531    -0.30400
H767        H  0.37335490  0.42952426  0.78595156     0.13800
H768        H  0.37432031  0.50259038  0.81460730     0.14300
C769        C  0.43886925  0.95329926  0.30430770    -0.01300
C770        C  0.23772155  0.75750558  0.30811939    -0.01300
C771        C  0.43259868  0.76449967  0.49489041    -0.01300
C772        C  0.24586049  0.94427911  0.49247069    -0.01300
C773        C  0.48609060  0.51010383  0.23848313    -0.01300
C774        C  0.99081181  0.68620143  0.03780326    -0.01300
C775        C  0.17315818  0.51146118  0.04586345    -0.01300
C776        C  0.18927152  0.70191986  0.23869202    -0.01300
Zr777      Zr  0.42058969  0.95219275  0.47594180     2.17500
O778        O  0.37300853  0.96594670  0.43367544    -0.50200
O779        O  0.41402908  0.89051045  0.47562378    -0.73400
O780        O  0.44160358  0.94550993  0.41607599    -0.80100
O781        O  0.34949866  0.95797370  0.05561398    -0.81900
O782        O  0.50064684  0.95596987  0.41213262    -0.77500
O783        O  0.35812753  0.95569932  0.49633454    -0.89100
O784        O  0.45948586  0.85768163  0.01381740    -0.75100
O785        O  0.48148216  0.92685405  0.48192524    -0.84600
O786        O  0.42246882  0.92564014  0.03721959    -0.84300
O787        O  0.45791959  0.99703251  0.46154700    -0.71000
O788        O  0.40087322  0.99449288  0.01466012    -0.83200
Zr789      Zr  0.50373152  0.99923318  0.06802861     2.26400
Zr790      Zr  0.01613404  0.97308961  0.46545224     2.06300
Zr791      Zr  0.40734460  0.97510324  0.07329523     2.10000
Zr792      Zr  0.48340634  0.90298541  0.04533512     1.78800
O793        O  0.35937348  0.52728504  0.09490636    -0.92000
O794        O  0.04240433  0.87157503  0.00187067    -0.39800
O795        O  0.46871446  0.95236858  0.08150578    -0.76400
O796        O  0.03219423  0.96001704  0.02059604    -0.95100
O797        O  0.49080738  0.53208109  0.00652002    -0.88400
O798        O  0.43829152  0.53165311  0.06055899    -0.91300
C799        C  0.42932850  0.86492017  0.49269166     1.02500
C800        C  0.33677391  0.94952976  0.02657792     1.15400
C801        C  0.47089800  0.94881254  0.39895354     1.06200
O802        O  0.06255568  0.92770394  0.44756331    -0.93400
O803        O  0.07455889  0.99029848  0.48324042    -0.89200
O804        O  0.06001490  0.50335079  0.03736750    -0.82300
C805        C  0.09360355  0.00785708  0.00977616     1.12800
O806        O  0.37683594  0.56026770  0.46364209    -0.95400
Zr807      Zr  0.42811933  0.55107270  0.00302208     1.88900
O808        O  0.50189566  0.57434228  0.06369801    -0.72000
O809        O  0.03003388  0.51999710  0.41985947    -0.51300
O810        O  0.44624914  0.57650307  0.45275383    -0.96000
O811        O  0.38097904  0.58996149  0.03100898    -0.53200
O812        O  0.45972848  0.59753947  0.02607685    -0.72600
C813        C  0.48523487  0.59999202  0.04771608     0.99800
O814        O  0.05471758  0.00562058  0.10476354    -0.61400
O815        O  0.39313031  0.93212794  0.11577515    -0.56200
O816        O  0.48279503  0.51261568  0.12496389    -0.92900
O817        O  0.42422643  0.99340196  0.13048817    -0.91300
O818        O  0.45328039  0.87081983  0.08899816    -0.91600
O819        O  0.05099496  0.89312549  0.06602402    -0.90400
C820        C  0.45406127  0.50776621  0.14252477     1.18600
H821        H  0.40640175  0.90811418  0.04173831     0.34600
H822        H  0.05728061  0.95209847  0.02443912     0.45400
H823        H  0.43224587  0.55000486  0.07704351     0.39000
H824        H  0.45406087  0.00455746  0.43803129     0.35400
H825        H  0.03992151  0.84892161  0.01280677     0.27200
H826        H  0.00883498  0.53756320  0.42013108     0.33600
H827        H  0.43502719  0.60051178  0.45584230     0.39100
H828        H  0.45855919  0.88168860  0.11123787     0.33500
H829        H  0.37506502  0.94459207  0.13143451     0.32400
H830        H  0.34421519  0.51469111  0.11067173     0.34100
H831        H  0.38615812  0.61347011  0.02406467     0.33100
H832        H  0.04970971  0.90926153  0.08585956     0.37100
H833        H  0.07262240  0.98558485  0.09976441     0.29800
H834        H  0.37316885  0.94543152  0.41852220     0.34000
H835        H  0.38088648  0.54331935  0.44458160     0.36900
H836        H  0.37940878  0.91569457  0.10313598     0.29500
H837        H  0.06831580  0.02614436  0.10268869     0.42400
H838        H  0.06865804  0.93348498  0.42347400     0.32400
H839        H  0.03847634  0.84740079  0.51046619     0.40000
H840        H  0.38615426  0.58889366  0.05598739     0.31900
H841        H  0.50227812  0.53180163  0.43521944     0.31900
H842        H  0.38148422  0.98431744  0.41887991     0.32200
Zr843      Zr  0.41295408  0.77172621  0.30705481     2.17500
O844        O  0.36348033  0.81653356  0.31919346    -0.50200
O845        O  0.41453734  0.77134927  0.37013388    -0.73400
O846        O  0.35277503  0.75115904  0.30587749    -0.80100
O847        O  0.47646781  0.84254028  0.28567090    -0.81900
O848        O  0.35757768  0.69357516  0.29430683    -0.77500
O849        O  0.42004906  0.83289197  0.30402239    -0.89100
O850        O  0.46432753  0.73868233  0.38922683    -0.75100
O851        O  0.43031215  0.71423386  0.32550386    -0.84600
O852        O  0.47532298  0.77037132  0.32159181    -0.84300
O853        O  0.40247529  0.73660197  0.25763171    -0.71000
O854        O  0.44415377  0.78895665  0.25623643    -0.83200
Zr855      Zr  0.01436734  0.69084468  0.22382126     2.26400
Zr856      Zr  0.42035392  0.67855105  0.27656212     2.06300
Zr857      Zr  0.00600461  0.78416301  0.25756753     2.10000
Zr858      Zr  0.49305938  0.71237933  0.33873430     1.78800
O859        O  0.02355094  0.82664554  0.21610182    -0.92000
O860        O  0.47740469  0.66324208  0.37265984    -0.39800
O861        O  0.02327118  0.72541930  0.27349751    -0.76400
O862        O  0.48295284  0.67530508  0.29150703    -0.95100
O863        O  0.45111870  0.69434175  0.22533691    -0.88400
O864        O  0.49770684  0.74978068  0.22178828    -0.91300
C865        C  0.43538741  0.75873959  0.39421571     1.02500
C866        C  0.44453131  0.85282645  0.29692550     1.15400
C867        C  0.33908292  0.72237703  0.30156957     1.06200
O868        O  0.40904466  0.63990126  0.32394552    -0.93400
O869        O  0.44873930  0.62147620  0.25863619    -0.89200
O870        O  0.50287034  0.63123756  0.23470255    -0.82300
C871        C  0.47894387  0.61126282  0.24351098     1.12800
O872        O  0.38342433  0.79514630  0.19971928    -0.95400
Zr873      Zr  0.43537368  0.75261612  0.20808068     1.88900
O874        O  0.01636996  0.69273450  0.16089926    -0.72000
O875        O  0.38146392  0.65396808  0.23493136    -0.51300
O876        O  0.38749898  0.73653251  0.17076829    -0.96000
O877        O  0.45814324  0.79733664  0.17214211    -0.53200
O878        O  0.46129595  0.71885998  0.16043983    -0.72600
C879        C  0.49112011  0.70034446  0.15441208     0.99800
O880        O  0.07044533  0.65368410  0.21410634    -0.61400
O881        O  0.04059159  0.80666995  0.30405948    -0.56200
O882        O  0.07428105  0.70947228  0.23541969    -0.92900
O883        O  0.06967515  0.76737776  0.24544548    -0.91300
O884        O  0.03976708  0.72843231  0.35468350    -0.91600
O885        O  0.03931468  0.66276177  0.33131024    -0.90400
C886        C  0.08816312  0.73805195  0.24080189     1.18600
H887        H  0.47854115  0.78648212  0.33999853     0.34600
H888        H  0.49161461  0.65206919  0.29820434     0.45400
H889        H  0.01336582  0.75606080  0.18832587     0.39000
H890        H  0.37770803  0.73911218  0.25011744     0.35400
H891        H  0.49029059  0.66511142  0.39470956     0.27200
H892        H  0.36698922  0.63883089  0.24870051     0.33200
H893        H  0.37897099  0.71586529  0.18179767     0.39100
H894        H  0.04007766  0.71556732  0.37673574     0.33500
H895        H  0.05331218  0.78594743  0.31497427     0.32400
H896        H  0.02337543  0.81528409  0.19328008     0.34100
H897        H  0.43730626  0.80665333  0.15810103     0.33100
H898        H  0.05276008  0.66113908  0.30908856     0.37100
H899        H  0.07142948  0.63629654  0.23281565     0.29800
H900        H  0.35006399  0.80824457  0.33922499     0.34000
H901        H  0.37885468  0.80610685  0.22261890     0.36900
H902        H  0.05992796  0.81816329  0.29239343     0.29500
H903        H  0.06671474  0.64060901  0.19274191     0.42400
H904        H  0.40107618  0.61913087  0.31274183     0.32400
H905        H  0.45156975  0.66878787  0.37882474     0.40000
H906        H  0.47481657  0.78476641  0.15529254     0.31900
H907        H  0.36394280  0.67349696  0.22786390     0.31900
H908        H  0.34668824  0.81638611  0.29952715     0.32200
Zr909      Zr  0.25593666  0.75749680  0.48148931     2.17500
O910        O  0.30754210  0.75214245  0.44180816    -0.50200
O911        O  0.25170603  0.81969820  0.47420258    -0.73400
O912        O  0.23706187  0.75752921  0.42090476    -0.80100
O913        O  0.32978056  0.71807692  0.04398206    -0.81900
O914        O  0.17674034  0.75234856  0.41947125    -0.77500
O915        O  0.31809413  0.75739614  0.50147406    -0.89100
O916        O  0.22785432  0.83505100  0.01941998    -0.75100
O917        O  0.19457253  0.78101050  0.48822895    -0.84600
O918        O  0.25707652  0.76632625  0.03661998    -0.84300
O919        O  0.22126606  0.71026897  0.46886315    -0.71000
O920        O  0.27305488  0.69788429  0.00889829    -0.83200
Zr921      Zr  0.17109012  0.69680482  0.06778483     2.26400
Zr922      Zr  0.15956697  0.73408345  0.47651898     2.06300
Zr923      Zr  0.27025046  0.71410785  0.06854445     2.10000
Zr924      Zr  0.19739170  0.79164295  0.04830685     1.78800
O925        O  0.31272744  0.66700155  0.08932543    -0.92000
O926        O  0.14948240  0.83391838  0.02784192    -0.39800
O927        O  0.21045103  0.74007697  0.08109035    -0.76400
O928        O  0.15657796  0.74967775  0.03676303    -0.95100
O929        O  0.17288189  0.68065464  0.00844480    -0.88400
O930        O  0.23098825  0.67050857  0.05696957    -0.91300
C931        C  0.23716733  0.84586816  0.49112209     1.02500
C932        C  0.34135105  0.73193690  0.01659590     1.15400
C933        C  0.20696325  0.75671071  0.40482587     1.06200
O934        O  0.11291544  0.78089769  0.46423644    -0.93400
O935        O  0.10197047  0.71338649  0.49180696    -0.89200
O936        O  0.10743674  0.69927906  0.05135073    -0.82300
C937        C  0.08774721  0.71269961  0.02674154     1.12800
O938        O  0.28053187  0.64377984  0.46140335    -0.95400
Zr939      Zr  0.23291571  0.65523228  0.99753945     1.88900
O940        O  0.17358514  0.63437002  0.07264061    -0.72000
O941        O  0.14251028  0.69749059  0.42961491    -0.51300
O942        O  0.21413093  0.62523842  0.46224099    -0.96000
O943        O  0.28088685  0.61547763  0.02200368    -0.53200
O944        O  0.20029425  0.61166119  0.02361468    -0.72600
C945        C  0.18342681  0.60914868  0.05226356     0.99800
O946        O  0.12136641  0.70007443  0.10962946    -0.61400
O947        O  0.29719998  0.75651268  0.10365563    -0.56200
O948        O  0.19205624  0.70005243  0.12714906    -0.92900
O949        O  0.25295439  0.70180720  0.12753458    -0.91300
O950        O  0.22436752  0.82210099  0.09484543    -0.91600
O951        O  0.15640258  0.81086802  0.09540585    -0.90400
C952        C  0.22239929  0.70031688  0.14279626     1.18600
H953        H  0.27477974  0.78224864  0.04116008     0.34600
H954        H  0.13275540  0.75993108  0.04323011     0.45400
H955        H  0.23714210  0.65077195  0.07162028     0.39000
H956        H  0.22540168  0.70178586  0.44561282     0.35400
H957        H  0.15353666  0.83526340  0.00261416     0.27200
H958        H  0.14277329  0.67416399  0.43984011     0.33200
H959        H  0.18771335  0.62651076  0.46637474     0.39100
H960        H  0.25051768  0.82040806  0.08929138     0.33500
H961        H  0.27945521  0.76261092  0.12243086     0.32400
H962        H  0.29896515  0.64654397  0.09030880     0.34100
H963        H  0.30322769  0.62701442  0.01880301     0.33100
H964        H  0.15250982  0.78946736  0.10812536     0.37100
H965        H  0.12811567  0.68219579  0.12721873     0.29800
H966        H  0.30325661  0.77148772  0.42528179     0.34000
H967        H  0.29034313  0.66529038  0.45378813     0.36900
H968        H  0.31779389  0.74320277  0.11516588     0.29500
H969        H  0.12219214  0.72242675  0.12169326     0.42400
H970        H  0.12574583  0.79854186  0.45216621     0.32400
H971        H  0.14380500  0.83992359  0.49850025     0.40000
H972        H  0.28374888  0.59544110  0.00610024     0.31900
H973        H  0.11666027  0.70486643  0.42538350     0.31900
H974        H  0.30508361  0.73101875  0.42813128     0.32200
Zr975      Zr  0.26592821  0.93927906  0.30418953     2.17500
O976        O  0.31609923  0.89360213  0.30581368    -0.50200
O977        O  0.26609306  0.94026848  0.36734471    -0.73400
O978        O  0.32512149  0.96117985  0.30383107    -0.80100
O979        O  0.20035948  0.86909378  0.28859489    -0.81900
O980        O  0.32046863  0.01827012  0.29005019    -0.77500
O981        O  0.25570002  0.87861717  0.30898362    -0.89100
O982        O  0.21637979  0.97363337  0.38661220    -0.75100
O983        O  0.25001823  0.99804039  0.32036643    -0.84600
O984        O  0.20392861  0.94229379  0.32076643    -0.84300
O985        O  0.27649744  0.97244357  0.25322934    -0.71000
O986        O  0.23410413  0.92114404  0.25481593    -0.83200
Zr987      Zr  0.15925878  0.52025468  0.23395621     2.26400
Zr988      Zr  0.25245333  0.53265111  0.27010275     2.06300
Zr989      Zr  0.17146204  0.92592012  0.27121739     2.10000
Zr990      Zr  0.18775551  0.00090261  0.33634453     1.78800
O991        O  0.15756153  0.88115187  0.23099361    -0.92000
O992        O  0.18979287  0.54623727  0.37211222    -0.39800
O993        O  0.15480189  0.98506125  0.28694624    -0.76400
O994        O  0.18923161  0.53655687  0.28524861    -0.95100
O995        O  0.22159620  0.51756760  0.21882705    -0.88400
O996        O  0.18102878  0.95950109  0.22053906    -0.91300
C997        C  0.24501533  0.95315989  0.39158559     1.02500
C998        C  0.23112374  0.85877710  0.30199743     1.15400
C999        C  0.33867712  0.98990290  0.29874123     1.06200
O1000       O  0.26609734  0.57387533  0.31419363    -0.93400
O1001       O  0.22493268  0.59002646  0.25403074    -0.89200
O1002       O  0.17049438  0.58112419  0.23112159    -0.82300
C1003       C  0.19472571  0.60076700  0.23992909     1.12800
O1004       O  0.29694506  0.91512671  0.19361489    -0.95400
Zr1005     Zr  0.24339263  0.95518061  0.20476902     1.88900
O1006       O  0.15741668  0.51757549  0.17109679    -0.72000
O1007       O  0.29182877  0.55442757  0.22636162    -0.51300
O1008       O  0.28888603  0.97828079  0.16821235    -0.96000
O1009       O  0.22761810  0.90379828  0.17467331    -0.53200
O1010       O  0.21457847  0.97966832  0.15380672    -0.72600
C1011       C  0.17706616  0.50316813  0.14665495     0.99800
O1012       O  0.11026215  0.56659481  0.22771482    -0.61400
O1013       O  0.13266602  0.90729189  0.31726267    -0.56200
O1014       O  0.09918093  0.50049996  0.23795645    -0.92900
O1015       O  0.10949517  0.94278192  0.25190652    -0.91300
O1016       O  0.13777420  0.97671975  0.36562466    -0.91600
O1017       O  0.12461962  0.54195929  0.34112088    -0.90400
C1018       C  0.09134974  0.97212005  0.24606265     1.18600
H1019       H  0.20028298  0.92692327  0.33976401     0.34600
H1020       H  0.18054679  0.55975669  0.29224532     0.45400
H1021       H  0.16610266  0.95302931  0.20183768     0.39000
H1022       H  0.30153004  0.96954215  0.24601503     0.35400
H1023       H  0.21625717  0.54285676  0.37556980     0.27200
H1024       H  0.31103686  0.53530613  0.22218731     0.33200
H1025       H  0.28604285  0.96796278  0.14515369     0.39100
H1026       H  0.14813648  0.96575563  0.38683644     0.33500
H1027       H  0.10855197  0.91993936  0.31360391     0.32400
H1028       H  0.13520260  0.87269836  0.24033861     0.34100
H1029       H  0.22998687  0.90923181  0.14985571     0.33100
H1030       H  0.11303937  0.54391645  0.31820803     0.37100
H1031       H  0.09519880  0.55964655  0.20848980     0.29800
H1032       H  0.33229741  0.89975763  0.32446828     0.34000
H1033       H  0.30789875  0.91059855  0.21655126     0.36900
H1034       H  0.12947101  0.88296350  0.31166555     0.29500
H1035       H  0.09490368  0.56573851  0.24865778     0.42400
H1036       H  0.28573552  0.58608854  0.30397137     0.32400
H1037       H  0.18596021  0.56772500  0.35838083     0.40000
H1038       H  0.20134237  0.90325947  0.17850559     0.31900
H1039       H  0.27746586  0.55566067  0.20494853     0.31900
H1040       H  0.32995708  0.89594807  0.28413740     0.32200
C1041       C  0.14934960  0.70849238  0.24936095    -0.15300
C1042       C  0.12809279  0.73730190  0.24083304    -0.30400
H1043       H  0.13641739  0.68734864  0.26089178     0.13800
H1044       H  0.14020677  0.75961306  0.23091836     0.14300
C1045       C  0.19153279  0.70598365  0.19946094    -0.15300
C1046       C  0.22229269  0.69925817  0.18098384    -0.30400
H1047       H  0.16661846  0.71285724  0.18548823     0.13800
H1048       H  0.24771244  0.69289585  0.19421915     0.14300
C1049       C  0.20250823  0.66416580  0.24715163    -0.15300
C1050       C  0.18591509  0.63809017  0.23307649    -0.30400
H1051       H  0.22510666  0.65836262  0.26446224     0.13800
H1052       H  0.16301669  0.64472395  0.21626668     0.14300
C1053       C  0.17705916  0.57438476  0.06323973    -0.15300
C1054       C  0.17067093  0.55028274  0.03977033    -0.30400
H1055       H  0.18096496  0.56863452  0.09028592     0.13800
H1056       H  0.16535260  0.55877547  0.01338023     0.14300
C1057       C  0.18541715  0.50154411  0.08267112    -0.15300
C1058       C  0.16502332  0.51069406  0.11094740    -0.30400
H1059       H  0.21150353  0.48667625  0.08604654     0.13800
H1060       H  0.13904107  0.52579045  0.10771217     0.14300
C1061       C  0.13586957  0.49931631  0.03996595    -0.15300
C1062       C  0.11721634  0.50355653  0.01034314    -0.30400
H1063       H  0.12261977  0.48791983  0.06165875     0.13800
H1064       H  0.14649409  0.02143227  0.98932073     0.14300
C1065       C  0.98177966  0.69694309  0.07523701    -0.15300
C1066       C  0.49975555  0.69093041  0.11825385    -0.30400
H1067       H  0.95335329  0.70275133  0.08192700     0.13800
H1068       H  0.52482946  0.67502745  0.11288271     0.14300
C1069       C  0.03127518  0.68510448  0.03014449    -0.15300
C1070       C  0.04838857  0.71384951  0.03055367    -0.30400
H1071       H  0.04700919  0.66046885  0.02508720     0.13800
H1072       H  0.03309355  0.73893228  0.03402446     0.14300
C1073       C  0.49650242  0.63456921  0.05522912    -0.15300
C1074       C  0.47882183  0.66399651  0.04311471    -0.30400
H1075       H  0.51961396  0.63575286  0.07181097     0.13800
H1076       H  0.95819023  0.64722093  0.01321981     0.14300
C1077       C  0.48846183  0.57426177  0.23520541    -0.15300
C1078       C  0.47215328  0.54748076  0.24812794    -0.30400
H1079       H  0.51178898  0.56849877  0.21826951     0.13800
H1080       H  0.44910111  0.55248662  0.26550060     0.14300
C1081       C  0.02366818  0.50288254  0.24094442    -0.15300
C1082       C  0.05175372  0.97314542  0.24061252    -0.30400
H1083       H  0.04124065  0.02522711  0.25471856     0.13800
H1084       H  0.03395375  0.44982706  0.22863903     0.14300
C1085       C  0.45434629  0.51161298  0.18062300    -0.15300
C1086       C  0.48495840  0.50676823  0.19899528    -0.30400
H1087       H  0.42893368  0.01274856  0.19524867     0.13800
H1088       H  0.51024986  0.50070961  0.18489667     0.14300
C1089       C  0.21425701  0.99375244  0.02180148    -0.15300
C1090       C  0.21620438  0.95934190  0.01825902    -0.30400
H1091       H  0.21409254  0.51147348  0.00167894     0.13800
H1092       H  0.19930275  0.94596746  0.03572276     0.14300
C1093       C  0.24280534  0.88032633  0.47818319    -0.15300
C1094       C  0.24948500  0.90558470  0.50017562    -0.30400
H1095       H  0.23846376  0.88495167  0.45095937     0.13800
H1096       H  0.25534741  0.89827138  0.52680756     0.14300
C1097       C  0.28261598  0.95787163  0.49713780    -0.15300
C1098       C  0.29827730  0.94332738  0.02574529    -0.30400
H1099       H  0.29366989  0.95636404  0.97384669     0.13800
H1100       H  0.28490168  0.93615215  0.04932594     0.14300
C1101       C  0.23354185  0.95275981  0.45538132    -0.15300
C1102       C  0.25475630  0.94354911  0.42750503    -0.30400
H1103       H  0.20768732  0.96789992  0.45158038     0.13800
H1104       H  0.28051624  0.92824382  0.43134712     0.14300
C1105       C  0.45877623  0.72877003  0.00081246    -0.15300
C1106       C  0.46363929  0.72800131  0.03514107    -0.30400
H1107       H  0.47296491  0.75699562  0.53883736     0.13800
H1108       H  0.44889130  0.74863040  0.05005555     0.14300
C1109       C  0.44493498  0.75703832  0.45760095    -0.15300
C1110       C  0.42477985  0.76782518  0.43003073    -0.30400
H1111       H  0.47044548  0.74131841  0.45319733     0.13800
H1112       H  0.39864264  0.78240826  0.43369610     0.14300
C1113       C  0.39395367  0.75505734  0.49964058    -0.15300
C1114       C  0.38061171  0.73192346  0.01225795    -0.30400
H1115       H  0.37533766  0.77568797  0.98113791     0.13800
H1116       H  0.38731294  0.76684014  0.55260219     0.14300
C1117       C  0.41829323  0.82998313  0.48636024    -0.15300
C1118       C  0.43528884  0.80255372  0.50289355    -0.30400
H1119       H  0.40771308  0.82035111  0.95928019     0.13800
H1120       H  0.45443028  0.80810933  0.52259311     0.14300
C1121       C  0.21504962  0.73111289  0.29109950    -0.15300
C1122       C  0.21200152  0.72777248  0.25644017    -0.30400
H1123       H  0.20099139  0.71415466  0.30759673     0.13800
H1124       H  0.22620016  0.74481797  0.24015259     0.14300
C1125       C  0.27732444  0.75116000  0.29645245    -0.15300
C1126       C  0.29934329  0.72273007  0.30482557    -0.30400
H1127       H  0.28937662  0.77209908  0.28356489     0.13800
H1128       H  0.28819002  0.70047805  0.31603528     0.14300
C1129       C  0.23682685  0.75401911  0.34750414    -0.15300
C1130       C  0.20658790  0.76002496  0.36674701    -0.30400
H1131       H  0.26214535  0.74732753  0.36088407     0.13800
H1132       H  0.18080050  0.76608771  0.35406627     0.14300
C1133       C  0.22348309  0.79489891  0.29883668    -0.15300
C1134       C  0.24022692  0.82180501  0.31077978    -0.30400
H1135       H  0.20027535  0.79975144  0.28208094     0.13800
H1136       H  0.26373848  0.81612470  0.32705114     0.14300
C1137       C  0.46228974  0.97972709  0.28888856    -0.15300
C1138       C  0.46575230  0.98345040  0.25457147    -0.30400
H1139       H  0.47610202  0.99623356  0.30585744     0.13800
H1140       H  0.44955870  0.46698562  0.23886498     0.14300
C1141       C  0.43410711  0.88978109  0.30377826    -0.15300
C1142       C  0.45227801  0.91628375  0.29323936    -0.30400
H1143       H  0.40946860  0.89565071  0.31893225     0.13800
H1144       H  0.47666405  0.91129418  0.27759891     0.14300
C1145       C  0.43988357  0.95459547  0.34350037    -0.15300
C1146       C  0.47034390  0.94613884  0.36118056    -0.30400
H1147       H  0.41493957  0.96181215  0.35779948     0.13800
H1148       H  0.49574024  0.93989987  0.34736016     0.14300
C1149       C  0.39974161  0.96122094  0.29288270    -0.15300
C1150       C  0.37813691  0.98954081  0.30251845    -0.30400
H1151       H  0.38756499  0.94140872  0.27850094     0.13800
H1152       H  0.38918185  0.01105627  0.31508061     0.14300
C1153       C  0.44079218  0.95097490  0.80414983    -0.01300
C1154       C  0.23334220  0.75668467  0.80726850    -0.01300
C1155       C  0.43418435  0.75711903  0.98295286    -0.01300
C1156       C  0.24092960  0.93863069  0.99201736    -0.01300
C1157       C  0.46898562  0.50849163  0.74037962    -0.01300
C1158       C  0.98797352  0.69847358  0.55170072    -0.01300
C1159       C  0.18079742  0.51590011  0.54831837    -0.01300
C1160       C  0.18539053  0.69647030  0.74204259    -0.01300
Zr1161     Zr  0.41778005  0.94492360  0.97871820     2.17500
O1162       O  0.36809211  0.94917943  0.93776262    -0.50200
O1163       O  0.41998542  0.88232867  0.97451912    -0.73400
O1164       O  0.43858880  0.94565348  0.91783607    -0.80100
O1165       O  0.35518269  0.96889131  0.55357143    -0.81900
O1166       O  0.49819169  0.95420388  0.91673106    -0.77500
O1167       O  0.35515301  0.94572796  0.99825378    -0.89100
O1168       O  0.45428990  0.86730188  0.51485218    -0.75100
O1169       O  0.47855413  0.92072066  0.98649725    -0.84600
O1170       O  0.42713658  0.93450143  0.53456472    -0.84300
O1171       O  0.45323964  0.99181563  0.96671821    -0.71000
O1172       O  0.40660949  0.00326158  0.51012277    -0.83200
Zr1173     Zr  0.51300624  0.00504092  0.56190259     2.26400
Zr1174     Zr  0.02376095  0.98076704  0.96250054     2.06300
Zr1175     Zr  0.41430108  0.98526267  0.56874475     2.10000
Zr1176     Zr  0.48781801  0.91018821  0.54071637     1.78800
O1177       O  0.34621503  0.52934766  0.58385900    -0.92000
O1178       O  0.03754626  0.87098272  0.50069386    -0.39800
O1179       O  0.47535697  0.96034916  0.57610657    -0.76400
O1180       O  0.02455983  0.95294158  0.52359499    -0.95100
O1181       O  0.48772431  0.52342007  0.51279875    -0.88400
O1182       O  0.42925080  0.52845706  0.56198030    -0.91300
C1183       C  0.43666909  0.85610611  0.98959098     1.02500
C1184       C  0.34093396  0.96043496  0.52522342     1.15400
C1185       C  0.46867180  0.94891088  0.90175391     1.06200
O1186       O  0.07328411  0.93889383  0.94396896    -0.93400
O1187       O  0.08099282  0.00032400  0.98032438    -0.89200
O1188       O  0.06679339  0.51368003  0.53972629    -0.82300
C1189       C  0.08744977  0.99855883  0.51237577     1.12800
O1190       O  0.37493214  0.56993206  0.96916184    -0.95400
Zr1191     Zr  0.42663795  0.54561292  0.50306103     1.88900
O1192       O  0.49317520  0.56662785  0.57096536    -0.72000
O1193       O  0.02818070  0.51583149  0.92830280    -0.51300
O1194       O  0.44508857  0.58123181  0.95121179    -0.96000
O1195       O  0.38201606  0.59015805  0.52624426    -0.53200
O1196       O  0.46239303  0.58921507  0.52464113    -0.72600
C1197       C  0.48285305  0.59160531  0.55072251     0.99800
O1198       O  0.04689683  0.00464885  0.60673281    -0.61400
O1199       O  0.39145201  0.94684698  0.61160105    -0.56200
O1200       O  0.46716538  0.50325037  0.63009687    -0.92900
O1201       O  0.43272908  0.00131802  0.62567167    -0.91300
O1202       O  0.46261861  0.88038434  0.58910786    -0.91600
O1203       O  0.03779318  0.88239767  0.57231804    -0.90400
C1204       C  0.43652278  0.50314907  0.64567312     1.18600
H1205       H  0.41045432  0.91796531  0.54067886     0.34600
H1206       H  0.04954598  0.94472173  0.52754243     0.45400
H1207       H  0.42253662  0.54772448  0.57724294     0.39000
H1208       H  0.44992666  0.00049093  0.94353698     0.35400
H1209       H  0.06048611  0.87966789  0.50778030     0.27200
H1210       H  0.03507859  0.50460622  0.90595059     0.33600
H1211       H  0.44394429  0.60583977  0.95807222     0.39100
H1212       H  0.46338187  0.89641057  0.60886923     0.33500
H1213       H  0.41237037  0.93913724  0.62625938     0.32400
H1214       H  0.33066001  0.53027013  0.56322780     0.34100
H1215       H  0.39501957  0.60311647  0.54328480     0.33100
H1216       H  0.04640344  0.90316275  0.58295885     0.37100
H1217       H  0.06441946  0.98384123  0.60424497     0.29800
H1218       H  0.37363622  0.93002761  0.92110046     0.34000
H1219       H  0.37512980  0.55287272  0.95018304     0.36900
H1220       H  0.37520086  0.96210770  0.62670862     0.29500
H1221       H  0.06108745  0.02446123  0.60245839     0.42400
H1222       H  0.08296624  0.92821046  0.96558529     0.32400
H1223       H  0.03278313  0.86931123  0.97833827     0.40000
H1224       H  0.36531356  0.57754382  0.54026410     0.31900
H1225       H  0.53243165  0.51856424  0.91187469     0.31900
H1226       H  0.37048862  0.97054228  0.92442099     0.32200
Zr1227     Zr  0.40952544  0.77100153  0.79711632     2.17500
O1228       O  0.36206657  0.81912306  0.79549084    -0.50200
O1229       O  0.40633667  0.76737636  0.85982061    -0.73400
O1230       O  0.34891464  0.75176161  0.80052859    -0.80100
O1231       O  0.47659638  0.83921612  0.78047614    -0.81900
O1232       O  0.35250546  0.69441452  0.78789835    -0.77500
O1233       O  0.42247769  0.83036675  0.80508621    -0.89100
O1234       O  0.45631053  0.73400822  0.87762392    -0.75100
O1235       O  0.42573126  0.71327211  0.81556530    -0.84600
O1236       O  0.47201470  0.76760412  0.81156870    -0.84300
O1237       O  0.39742540  0.73634852  0.74806664    -0.71000
O1238       O  0.44094323  0.78644339  0.74573897    -0.83200
Zr1239     Zr  0.01039344  0.68476021  0.73917889     2.26400
Zr1240     Zr  0.41384364  0.67823615  0.76716424     2.06300
Zr1241     Zr  0.00348259  0.77709597  0.77293044     2.10000
Zr1242     Zr  0.48855828  0.70952160  0.82853483     1.78800
O1243       O  0.02149610  0.81519935  0.72748054    -0.92000
O1244       O  0.47798838  0.66163703  0.86659681    -0.39800
O1245       O  0.01969759  0.71855721  0.78934700    -0.76400
O1246       O  0.47666747  0.67260840  0.78193394    -0.95100
O1247       O  0.44579040  0.69154835  0.71555597    -0.88400
O1248       O  0.49332101  0.74583024  0.71205801    -0.91300
C1249       C  0.42693894  0.75322810  0.88328598     1.02500
C1250       C  0.44704642  0.84978626  0.79660120     1.15400
C1251       C  0.33483020  0.72309210  0.79682877     1.06200
O1252       O  0.39958787  0.63940171  0.81347449    -0.93400
O1253       O  0.43942116  0.62066529  0.75046008    -0.89200
O1254       O  0.49520839  0.62711310  0.72824732    -0.82300
C1255       C  0.46967247  0.60869677  0.73675320     1.12800
O1256       O  0.37971839  0.79174545  0.68518486    -0.95400
Zr1257     Zr  0.43093036  0.74970928  0.69776946     1.88900
O1258       O  0.01156108  0.68549539  0.67602868    -0.72000
O1259       O  0.37187476  0.65618418  0.72680125    -0.51300
O1260       O  0.38338387  0.72317728  0.66793398    -0.96000
O1261       O  0.44558528  0.79679594  0.66034980    -0.53200
O1262       O  0.46065010  0.72099649  0.64829815    -0.72600
C1263       C  0.48963175  0.70072361  0.64372446     0.99800
O1264       O  0.06564695  0.64523389  0.73561259    -0.61400
O1265       O  0.04104607  0.80029944  0.81672515    -0.56200
O1266       O  0.07076319  0.70354725  0.74429151    -0.92900
O1267       O  0.06676683  0.76013966  0.76008698    -0.91300
O1268       O  0.02647392  0.72817478  0.87773845    -0.91600
O1269       O  0.04365500  0.66951624  0.84979468    -0.90400
C1270       C  0.08480898  0.73159895  0.75137111     1.18600
H1271       H  0.47602777  0.78331707  0.83011972     0.34600
H1272       H  0.48452947  0.64936423  0.78923436     0.45400
H1273       H  0.01048237  0.74963741  0.70387393     0.39000
H1274       H  0.37228809  0.73960015  0.74169513     0.35400
H1275       H  0.48409938  0.66935763  0.88997627     0.27200
H1276       H  0.35647728  0.67688385  0.71891188     0.33200
H1277       H  0.38877771  0.72576758  0.64305880     0.39100
H1278       H  0.04101027  0.74220912  0.86278532     0.33500
H1279       H  0.05324218  0.81837891  0.80464094     0.32400
H1280       H  0.02979321  0.83522623  0.73976939     0.34100
H1281       H  0.44224146  0.78840990  0.63658609     0.33100
H1282       H  0.05327148  0.66223747  0.82672911     0.37100
H1283       H  0.06366939  0.62828670  0.75441838     0.29800
H1284       H  0.34681390  0.81660435  0.81624435     0.34000
H1285       H  0.37235227  0.80199770  0.70787637     0.36900
H1286       H  0.02402818  0.81320263  0.83303503     0.29500
H1287       H  0.06399318  0.63196573  0.71397662     0.42400
H1288       H  0.42300599  0.62649361  0.81944770     0.32400
H1289       H  0.45139939  0.66136223  0.86717645     0.40000
H1290       H  0.47200291  0.79745044  0.66236844     0.31900
H1291       H  0.38682544  0.64873199  0.70635090     0.31900
H1292       H  0.34663172  0.81436768  0.77572734     0.32200
Zr1293     Zr  0.25803063  0.75027413  0.97718143     2.17500
O1294       O  0.30546234  0.74133687  0.93313949    -0.50200
O1295       O  0.26154658  0.81239371  0.97432803    -0.73400
O1296       O  0.23447074  0.75640426  0.91875204    -0.80100
O1297       O  0.32197571  0.74506343  0.55880162    -0.81900
O1298       O  0.17423179  0.75070794  0.91910084    -0.77500
O1299       O  0.32128020  0.74533221  0.99235008    -0.89100
O1300       O  0.21669646  0.84438092  0.51776921    -0.75100
O1301       O  0.19871281  0.77685394  0.98875957    -0.84600
O1302       O  0.24897344  0.77730163  0.53973771    -0.84300
O1303       O  0.21903130  0.70641962  0.96433213    -0.71000
O1304       O  0.27233086  0.70835052  0.51743337    -0.83200
Zr1305     Zr  0.16601245  0.70366313  0.56962278     2.26400
Zr1306     Zr  0.15948189  0.73329928  0.97711595     2.06300
Zr1307     Zr  0.26321459  0.72799650  0.57566894     2.10000
Zr1308     Zr  0.18747722  0.79951209  0.54671448     1.78800
O1309       O  0.31116152  0.68404681  0.59271736    -0.92000
O1310       O  0.13722549  0.83690518  0.52303919    -0.39800
O1311       O  0.20122701  0.75042043  0.58312189    -0.76400
O1312       O  0.15056070  0.75398807  0.53477612    -0.95100
O1313       O  0.17445516  0.68425582  0.51157064    -0.88400
O1314       O  0.22804345  0.68100851  0.56423511    -0.91300
C1315       C  0.24836635  0.83785745  0.99307873     1.02500
C1316       C  0.33575885  0.75332850  0.52986172     1.15400
C1317       C  0.20385132  0.75586778  0.90371466     1.06200
O1318       O  0.11763546  0.78243631  0.96016922    -0.93400
O1319       O  0.09972942  0.72688964  0.99976952    -0.89200
O1320       O  0.10408530  0.70204725  0.54933406    -0.82300
C1321       C  0.08742791  0.70506358  0.52031950     1.12800
O1322       O  0.27597366  0.63633773  0.95179224    -0.95400
Zr1323     Zr  0.23635842  0.66241049  0.50609853     1.88900
O1324       O  0.16290348  0.64145685  0.57112396    -0.72000
O1325       O  0.13410440  0.69334325  0.93796060    -0.51300
O1326       O  0.20783845  0.62213964  0.95179578    -0.96000
O1327       O  0.28823321  0.62681533  0.52939244    -0.53200
O1328       O  0.20664968  0.61839427  0.53441611    -0.72600
C1329       C  0.18047433  0.61583486  0.55557810     0.99800
O1330       O  0.11616552  0.71323470  0.61111750    -0.61400
O1331       O  0.27734729  0.77060204  0.61827192    -0.56200
O1332       O  0.18598640  0.69972340  0.62956340    -0.92900
O1333       O  0.24521846  0.70941516  0.63224567    -0.91300
O1334       O  0.20941646  0.83458358  0.59259240    -0.91600
O1335       O  0.14324250  0.81712063  0.59173726    -0.90400
C1336       C  0.21551746  0.70213935  0.64603801     1.18600
H1337       H  0.26492110  0.79481577  0.54444237     0.34600
H1338       H  0.12558448  0.76272842  0.53853324     0.45400
H1339       H  0.23385399  0.66225381  0.58020445     0.39000
H1340       H  0.22104757  0.69940062  0.94046092     0.35400
H1341       H  0.13927353  0.85980043  0.53359852     0.27200
H1342       H  0.15512655  0.67771870  0.92984927     0.33200
H1343       H  0.20860751  0.63652388  0.93079594     0.39100
H1344       H  0.23603957  0.83217681  0.58988586     0.33500
H1345       H  0.25450381  0.77660044  0.63126071     0.32400
H1346       H  0.30002107  0.66929566  0.60974195     0.34100
H1347       H  0.28201974  0.62286515  0.55385738     0.33100
H1348       H  0.14635536  0.79851370  0.60920194     0.37100
H1349       H  0.11759918  0.69232256  0.62580191     0.29800
H1350       H  0.30224438  0.76164124  0.91767049     0.34000
H1351       H  0.27632980  0.65652189  0.93629722     0.36900
H1352       H  0.29348456  0.75751452  0.63489591     0.29500
H1353       H  0.12239120  0.73204867  0.62648027     0.42400
H1354       H  0.10115419  0.77277436  0.94365381     0.32400
H1355       H  0.12693781  0.82257970  0.03026652     0.40000
H1356       H  0.30778144  0.64227944  0.53028412     0.31900
H1357       H  0.12027615  0.67865302  0.95289303     0.31900
H1358       H  0.29911533  0.72162698  0.91905058     0.32200
Zr1359     Zr  0.26344239  0.93753505  0.80449130     2.17500
O1360       O  0.31296130  0.89155842  0.80952875    -0.50200
O1361       O  0.26125383  0.93736055  0.86748543    -0.73400
O1362       O  0.32439441  0.95758067  0.80376268    -0.80100
O1363       O  0.19700612  0.86826202  0.78508684    -0.81900
O1364       O  0.32091728  0.01421969  0.78831502    -0.77500
O1365       O  0.25161331  0.87720463  0.80757423    -0.89100
O1366       O  0.21054639  0.96913338  0.88697003    -0.75100
O1367       O  0.24678202  0.99546141  0.82283642    -0.84600
O1368       O  0.20093808  0.94024876  0.81982825    -0.84300
O1369       O  0.27464609  0.97199706  0.75477228    -0.71000
O1370       O  0.23179733  0.92083471  0.75422540    -0.83200
Zr1371     Zr  0.15248853  0.51600743  0.73621593     2.26400
Zr1372     Zr  0.24548401  0.52470932  0.77322626     2.06300
Zr1373     Zr  0.16884937  0.92583970  0.76946658     2.10000
Zr1374     Zr  0.18380740  0.99812494  0.83700529     1.78800
O1375       O  0.15392866  0.88629458  0.72432115    -0.92000
O1376       O  0.19000661  0.53946651  0.87148210    -0.39800
O1377       O  0.15185727  0.98478313  0.78636071    -0.76400
O1378       O  0.18264970  0.53022355  0.78834314    -0.95100
O1379       O  0.21499915  0.51136649  0.72157216    -0.88400
O1380       O  0.17962098  0.96125085  0.72053777    -0.91300
C1381       C  0.23933455  0.94881479  0.89165463     1.02500
C1382       C  0.22709611  0.85766142  0.79954211     1.15400
C1383       C  0.33882879  0.98573126  0.79734434     1.06200
O1384       O  0.25505508  0.56542458  0.81914807    -0.93400
O1385       O  0.22112969  0.58316524  0.75667949    -0.89200
O1386       O  0.16519047  0.57647278  0.73610047    -0.82300
C1387       C  0.19063184  0.59511816  0.74388808     1.12800
O1388       O  0.29354754  0.91263406  0.69905667    -0.95400
Zr1389     Zr  0.24205651  0.95634808  0.70552866     1.88900
O1390       O  0.15590465  0.51587711  0.67277904    -0.72000
O1391       O  0.28927950  0.54457003  0.73258999    -0.51300
O1392       O  0.28798163  0.98077516  0.67060934    -0.96000
O1393       O  0.22606731  0.90786307  0.67087426    -0.53200
O1394       O  0.21324667  0.98126000  0.65477769    -0.72600
C1395       C  0.17783150  0.50376617  0.64873197     0.99800
O1396       O  0.10398312  0.56203615  0.72632388    -0.61400
O1397       O  0.12893312  0.90390480  0.81299485    -0.56200
O1398       O  0.09137597  0.49734858  0.74107872    -0.92900
O1399       O  0.10679467  0.94370272  0.75233611    -0.91300
O1400       O  0.13484356  0.96913063  0.86239547    -0.91600
O1401       O  0.11855501  0.53389461  0.84450142    -0.90400
C1402       C  0.08949302  0.97297668  0.74498680     1.18600
H1403       H  0.19684972  0.92423026  0.83815275     0.34600
H1404       H  0.17481973  0.55345692  0.79584960     0.45400
H1405       H  0.16489113  0.95526022  0.70149734     0.39000
H1406       H  0.29954633  0.96878386  0.74727197     0.35400
H1407       H  0.17929503  0.56110653  0.86064994     0.27200
H1408       H  0.27471237  0.55465889  0.71315945     0.33200
H1409       H  0.30188258  0.99344094  0.68715900     0.39100
H1410       H  0.13409729  0.97600109  0.88701242     0.33500
H1411       H  0.10701411  0.89878711  0.80048539     0.32400
H1412       H  0.13422406  0.87406910  0.73439078     0.34100
H1413       H  0.23962458  0.90948173  0.64891607     0.33100
H1414       H  0.11238636  0.54300084  0.82121529     0.37100
H1415       H  0.08961231  0.55407368  0.70705060     0.29800
H1416       H  0.32713956  0.89743509  0.82981710     0.34000
H1417       H  0.30201799  0.91435306  0.67488866     0.36900
H1418       H  0.14040088  0.88092275  0.81993840     0.29500
H1419       H  0.08785544  0.56235667  0.74683657     0.42400
H1420       H  0.25744450  0.55123491  0.84034727     0.32400
H1421       H  0.17625267  0.53781295  0.89332649     0.40000
H1422       H  0.20047938  0.91376760  0.66450180     0.31900
H1423       H  0.29844861  0.56463131  0.74408740     0.31900
H1424       H  0.32903636  0.89389161  0.78932092     0.32200
C1425       C  0.14622151  0.70223376  0.75478431    -0.15300
C1426       C  0.12443216  0.73118905  0.74837753    -0.30400
H1427       H  0.13425444  0.68075616  0.76679949     0.13800
H1428       H  0.13563341  0.75390223  0.73825807     0.14300
C1429       C  0.18540380  0.70065918  0.70285296    -0.15300
C1430       C  0.21582872  0.69682531  0.68369435    -0.30400
H1431       H  0.15977778  0.70677285  0.68981756     0.13800
H1432       H  0.24175970  0.69163369  0.69634925     0.14300
C1433       C  0.19985238  0.65882518  0.75014390    -0.15300
C1434       C  0.18266686  0.63260421  0.73701520    -0.30400
H1435       H  0.22314841  0.65331424  0.76665914     0.13800
H1436       H  0.15915165  0.63936408  0.72100994     0.14300
C1437       C  0.16985073  0.58075876  0.56154361    -0.15300
C1438       C  0.18718259  0.55370491  0.54433409    -0.30400
H1439       H  0.14744645  0.57763352  0.57885249     0.13800
H1440       H  0.20834051  0.55926061  0.52629743     0.14300
C1441       C  0.19067313  0.50426997  0.58516080    -0.15300
C1442       C  0.16981484  0.51482241  0.61299366    -0.30400
H1443       H  0.21463624  0.48626945  0.58883844     0.13800
H1444       H  0.14497625  0.53146247  0.60954130     0.14300
C1445       C  0.14151708  0.51034568  0.54226496    -0.15300
C1446       C  0.12342674  0.51795785  0.51305015    -0.30400
H1447       H  0.12712873  0.49856860  0.56299248     0.13800
H1448       H  0.13938911  0.01334761  0.49084419     0.14300
C1449       C  0.97759653  0.70177676  0.58999111    -0.15300
C1450       C  0.50088172  0.69091913  0.60828404    -0.30400
H1451       H  0.95222472  0.71680082  0.59665667     0.13800
H1452       H  0.52744240  0.67681584  0.60493719     0.14300
C1453       C  0.02776525  0.70508830  0.54793387    -0.15300
C1454       C  0.04866494  0.69895569  0.51968646    -0.30400
H1455       H  0.04045562  0.71569069  0.57017214     0.13800
H1456       H  0.03737767  0.68987230  0.49607300     0.14300
C1457       C  0.49370068  0.62583377  0.55922583    -0.15300
C1458       C  0.49277760  0.65126101  0.53556996    -0.30400
H1459       H  0.50009373  0.63009493  0.58587982     0.13800
H1460       H  0.95934144  0.66082446  0.52003203     0.14300
C1461       C  0.47661916  0.57117330  0.73048170    -0.15300
C1462       C  0.45816312  0.54712673  0.74604173    -0.30400
H1463       H  0.49942503  0.56265621  0.71373971     0.13800
H1464       H  0.43583300  0.55534716  0.76345031     0.14300
C1465       C  0.01517878  0.49916598  0.74720872    -0.15300
C1466       C  0.04997989  0.97426020  0.73945099    -0.30400
H1467       H  0.04069328  0.02623812  0.75315908     0.13800
H1468       H  0.02593872  0.44782561  0.72972630     0.14300
C1469       C  0.43577682  0.50733417  0.68353487    -0.15300
C1470       C  0.46628602  0.50120199  0.70187204    -0.30400
H1471       H  0.43657686  0.01648833  0.69058225     0.13800
H1472       H  0.49094750  0.49214161  0.68793335     0.14300
C1473       C  0.20979687  0.99474327  0.52256229    -0.15300
C1474       C  0.21787059  0.96053069  0.51865550    -0.30400
H1475       H  0.22260202  0.50882365  0.50448096     0.13800
H1476       H  0.20401323  0.94371574  0.53556513     0.14300
C1477       C  0.25641659  0.87318724  0.98381566    -0.15300
C1478       C  0.23735637  0.90056322  0.99898582    -0.30400
H1479       H  0.27728994  0.87645076  0.96480075     0.13800
H1480       H  0.21710087  0.89492652  0.01795507     0.14300
C1481       C  0.27987010  0.94678276  0.99617728    -0.15300
C1482       C  0.30228270  0.95447428  0.52601716    -0.30400
H1483       H  0.29485863  0.96945102  0.47495659     0.13800
H1484       H  0.29061791  0.94527489  0.54965011     0.14300
C1485       C  0.22861133  0.94798160  0.95531976    -0.15300
C1486       C  0.24845851  0.93747810  0.92707855    -0.30400
H1487       H  0.20403120  0.96527296  0.95202668     0.13800
H1488       H  0.27362572  0.92118104  0.92998774     0.14300
C1489       C  0.45865205  0.74360015  0.51947351    -0.15300
C1490       C  0.46610665  0.70911267  0.51843279    -0.30400
H1491       H  0.47214351  0.70802844  0.98520592     0.13800
H1492       H  0.45206369  0.69484114  0.49954246     0.14300
C1493       C  0.44110851  0.75270446  0.94453296    -0.15300
C1494       C  0.41629716  0.75880584  0.91953025    -0.30400
H1495       H  0.46929776  0.74665513  0.93688713     0.13800
H1496       H  0.38841865  0.76803652  0.92527706     0.14300
C1497       C  0.39430512  0.75565189  0.99207861    -0.15300
C1498       C  0.37462646  0.75901022  0.52913778    -0.30400
H1499       H  0.38073409  0.74505479  0.47741953     0.13800
H1500       H  0.39773136  0.71197554  0.02536933     0.14300
C1501       C  0.42838551  0.82171480  0.97866888    -0.15300
C1502       C  0.44470714  0.79249626  0.99266544    -0.30400
H1503       H  0.39763402  0.82696793  0.46748883     0.13800
H1504       H  0.46587804  0.79427945  0.01153212     0.14300
C1505       C  0.21117594  0.72892017  0.79214657    -0.15300
C1506       C  0.20804161  0.72346979  0.75794652    -0.30400
H1507       H  0.19779590  0.71242696  0.80972361     0.13800
H1508       H  0.22139073  0.74024145  0.74062969     0.14300
C1509       C  0.27268982  0.75096225  0.79477557    -0.15300
C1510       C  0.29553217  0.72318449  0.80297126    -0.30400
H1511       H  0.28378078  0.77170088  0.78063590     0.13800
H1512       H  0.28539515  0.70098799  0.81532105     0.14300
C1513       C  0.23300873  0.75425027  0.84654102    -0.15300
C1514       C  0.20274445  0.75978250  0.86587351    -0.30400
H1515       H  0.25861110  0.74815358  0.85960261     0.13800
H1516       H  0.17672462  0.76519110  0.85344514     0.14300
C1517       C  0.21848706  0.79371301  0.79730177    -0.15300
C1518       C  0.23551393  0.82075046  0.80860366    -0.30400
H1519       H  0.19515139  0.79812004  0.78065589     0.13800
H1520       H  0.25898006  0.81515542  0.82496550     0.14300
C1521       C  0.46411278  0.97758990  0.78755814    -0.15300
C1522       C  0.46917897  0.98099582  0.75294202    -0.30400
H1523       H  0.47740956  0.99446589  0.80454196     0.13800
H1524       H  0.41438684  0.49196002  0.75351781     0.14300
C1525       C  0.43901435  0.88661093  0.80669674    -0.15300
C1526       C  0.45544934  0.91367704  0.79442851    -0.30400
H1527       H  0.41592541  0.89217848  0.82397030     0.13800
H1528       H  0.47838365  0.90904741  0.77687034     0.14300
C1529       C  0.44051571  0.95401072  0.84378257    -0.15300
C1530       C  0.47007480  0.94736857  0.86339250    -0.30400
H1531       H  0.41477686  0.96034152  0.85703935     0.13800
H1532       H  0.49627224  0.94183874  0.85083674     0.14300
C1533       C  0.40125265  0.95699077  0.79235535    -0.15300
C1534       C  0.37871023  0.98532517  0.80049844    -0.30400
H1535       H  0.38955542  0.93578720  0.77977478     0.13800
H1536       H  0.38955986  0.00782996  0.81130900     0.14300
C1537       C  0.93749840  0.45263914  0.29938850    -0.01300
C1538       C  0.73916757  0.25682432  0.29404300    -0.01300
C1539       C  0.94248017  0.25902195  0.47496074    -0.01300
C1540       C  0.74568002  0.45316469  0.48121020    -0.01300
C1541       C  0.99126527  0.00836084  0.23001389    -0.01300
C1542       C  0.49949187  0.18620805  0.04162481    -0.01300
C1543       C  0.68330000  0.00381319  0.03629407    -0.01300
C1544       C  0.68975496  0.19845063  0.22891595    -0.01300
Zr1545     Zr  0.92548169  0.44695059  0.47115878     2.17500
O1546       O  0.87857596  0.43327540  0.43116115    -0.50200
O1547       O  0.93362383  0.38385899  0.46992260    -0.73400
O1548       O  0.94346012  0.45009681  0.41076104    -0.80100
O1549       O  0.84420409  0.45419615  0.04660352    -0.81900
O1550       O  0.00220878  0.46103984  0.40770837    -0.77500
O1551       O  0.86195175  0.45003001  0.48703519    -0.89100
O1552       O  0.96232624  0.35448952  0.00457175    -0.75100
O1553       O  0.98802354  0.42865548  0.47761702    -0.84600
O1554       O  0.92077317  0.42075003  0.02900789    -0.84300
O1555       O  0.95463986  0.49813311  0.45823113    -0.71000
O1556       O  0.89362778  0.48902026  0.00775824    -0.83200
Zr1557     Zr  0.99849303  0.49897843  0.05780309     2.26400
Zr1558     Zr  0.50438308  0.47276115  0.47902537     2.06300
Zr1559     Zr  0.90320106  0.46926592  0.06571052     2.10000
Zr1560     Zr  0.98342309  0.40233359  0.03460394     1.78800
O1561       O  0.87374328  0.02836887  0.07893335    -0.92000
O1562       O  0.53741713  0.38094611  0.01793020    -0.39800
O1563       O  0.96613887  0.45036708  0.07145511    -0.76400
O1564       O  0.51833770  0.46276081  0.02766084    -0.95100
O1565       O  0.00545545  0.02939902  0.99881129    -0.88400
O1566       O  0.95057276  0.02984626  0.05088073    -0.91300
C1567       C  0.95116639  0.35805878  0.48496783     1.02500
C1568       C  0.83099740  0.44608662  0.01749223     1.15400
C1569       C  0.97255894  0.45414217  0.39381877     1.06200
O1570       O  0.55072317  0.43047411  0.45507691    -0.93400
O1571       O  0.56327121  0.48077800  0.50228342    -0.89200
O1572       O  0.56700355  0.99302799  0.05279760    -0.82300
C1573       C  0.57993678  0.50906830  0.01136657     1.12800
O1574       O  0.88397798  0.05353067  0.45683228    -0.95400
Zr1575     Zr  0.94294857  0.04873082  0.99279610     1.88900
O1576       O  0.01223077  0.07134083  0.05840117    -0.72000
O1577       O  0.53926607  0.01276940  0.42725283    -0.51300
O1578       O  0.94778917  0.07635515  0.44543555    -0.96000
O1579       O  0.88968890  0.08055465  0.01906077    -0.53200
O1580       O  0.97184839  0.09485655  0.01931819    -0.72600
C1581       C  0.99625193  0.09706659  0.04208180     0.99800
O1582       O  0.54575760  0.50691212  0.10995946    -0.61400
O1583       O  0.88948260  0.42374758  0.10547508    -0.56200
O1584       O  0.99335299  0.00788404  0.11709725    -0.92900
O1585       O  0.92285162  0.48711058  0.12243562    -0.91300
O1586       O  0.95577437  0.36977328  0.07966300    -0.91600
O1587       O  0.52866376  0.39977130  0.08623869    -0.90400
C1588       C  0.96405016  0.00305689  0.13354314     1.18600
H1589       H  0.90616285  0.40211850  0.03379975     0.34600
H1590       H  0.54355897  0.45453845  0.03011850     0.45400
H1591       H  0.94370958  0.04818379  0.06721000     0.39000
H1592       H  0.95002330  0.50620797  0.43500252     0.35400
H1593       H  0.53504251  0.35716557  0.02611952     0.27200
H1594       H  0.51748572  0.02088031  0.41389813     0.33600
H1595       H  0.97424845  0.07754441  0.44586108     0.39100
H1596       H  0.97252640  0.34859329  0.08284238     0.33500
H1597       H  0.87309327  0.43563623  0.12297827     0.32400
H1598       H  0.85090738  0.01775103  0.08248731     0.34100
H1599       H  0.88509146  0.10168826  0.00489819     0.33100
H1600       H  0.53661192  0.42201945  0.09399271     0.37100
H1601       H  0.55973880  0.48413398  0.10632739     0.29800
H1602       H  0.88916793  0.41306078  0.41763884     0.34000
H1603       H  0.87799627  0.03051644  0.44918011     0.36900
H1604       H  0.87394781  0.40924228  0.09240779     0.29500
H1605       H  0.56300015  0.52407403  0.10486791     0.42400
H1606       H  0.56038435  0.41694703  0.47516754     0.32400
H1607       H  0.52733208  0.37307933  0.50975860     0.40000
H1608       H  0.89796972  0.08903149  0.04140345     0.31900
H1609       H  0.01274747  0.02741089  0.41577016     0.31900
H1610       H  0.87553685  0.45256466  0.41444765     0.32200
Zr1611     Zr  0.91440712  0.26975685  0.29152093     2.17500
O1612       O  0.86566934  0.31632245  0.29850044    -0.50200
O1613       O  0.91263438  0.26093891  0.35311855    -0.73400
O1614       O  0.85425887  0.24960982  0.29165196    -0.80100
O1615       O  0.97666130  0.34217444  0.27345538    -0.81900
O1616       O  0.85853219  0.19301245  0.27570584    -0.77500
O1617       O  0.92486298  0.32996257  0.30050891    -0.89100
O1618       O  0.96728568  0.23487732  0.36909244    -0.75100
O1619       O  0.93241596  0.21113039  0.30645560    -0.84600
O1620       O  0.97723984  0.26766369  0.30464646    -0.84300
O1621       O  0.90239837  0.23716950  0.24103764    -0.71000
O1622       O  0.94386238  0.29041678  0.24159460    -0.83200
Zr1623     Zr  0.51491591  0.19136847  0.22882296     2.26400
Zr1624     Zr  0.92114194  0.17800127  0.25621956     2.06300
Zr1625     Zr  0.50826790  0.28594254  0.26043781     2.10000
Zr1626     Zr  0.99540401  0.20883355  0.31799679     1.78800
O1627       O  0.52133853  0.32462449  0.21363688    -0.92000
O1628       O  0.97981959  0.15946536  0.35172546    -0.39800
O1629       O  0.52550817  0.22717091  0.27732637    -0.76400
O1630       O  0.98452811  0.17427382  0.26914756    -0.95100
O1631       O  0.95039001  0.19698974  0.20528392    -0.88400
O1632       O  0.99691462  0.25266733  0.20336993    -0.91300
C1633       C  0.93584859  0.25011281  0.37573078     1.02500
C1634       C  0.94753765  0.35102913  0.29098016     1.15400
C1635       C  0.84039407  0.22121296  0.28576288     1.06200
O1636       O  0.90901681  0.13524384  0.29965119    -0.93400
O1637       O  0.95003167  0.12064247  0.24022469    -0.89200
O1638       O  0.00465076  0.13098937  0.21774629    -0.82300
C1639       C  0.98112053  0.11042901  0.22690186     1.12800
O1640       O  0.88628448  0.30408058  0.18639992    -0.95400
Zr1641     Zr  0.93371941  0.25653017  0.19229509     1.88900
O1642       O  0.51457664  0.18998293  0.16618719    -0.72000
O1643       O  0.88350913  0.15514594  0.21236400    -0.51300
O1644       O  0.88011730  0.24942411  0.15849328    -0.96000
O1645       O  0.96069607  0.29771889  0.15515769    -0.53200
O1646       O  0.94877346  0.21929249  0.14475857    -0.72600
C1647       C  0.97922160  0.20489104  0.13469448     0.99800
O1648       O  0.56981594  0.15342305  0.21575775    -0.61400
O1649       O  0.54598957  0.31372678  0.30105489    -0.56200
O1650       O  0.57519324  0.20895147  0.23658535    -0.92900
O1651       O  0.57184824  0.26686176  0.24650497    -0.91300
O1652       O  0.54092058  0.23417655  0.35955151    -0.91600
O1653       O  0.54523305  0.16952089  0.33888789    -0.90400
C1654       C  0.58971478  0.23726612  0.24062974     1.18600
H1655       H  0.98119378  0.28258300  0.32388336     0.34600
H1656       H  0.99377270  0.15129395  0.27603098     0.45400
H1657       H  0.51550577  0.25556603  0.19199928     0.39000
H1658       H  0.87737036  0.24012131  0.23426141     0.35400
H1659       H  0.99822533  0.15662189  0.37006316     0.27200
H1660       H  0.86555978  0.17474056  0.20642394     0.33200
H1661       H  0.87213240  0.22718121  0.16633112     0.39100
H1662       H  0.55718864  0.24262030  0.34179330     0.33500
H1663       H  0.53187201  0.31592963  0.32286608     0.32400
H1664       H  0.53940336  0.33890098  0.22330192     0.34100
H1665       H  0.95210415  0.32071685  0.16475523     0.33100
H1666       H  0.55498919  0.16234937  0.31584145     0.37100
H1667       H  0.57258712  0.13652738  0.23488829     0.29800
H1668       H  0.85072953  0.30971880  0.31823998     0.34000
H1669       H  0.87522810  0.30695462  0.20970273     0.36900
H1670       H  0.56647298  0.29628331  0.30620080     0.29500
H1671       H  0.56421818  0.13977327  0.19527411     0.42400
H1672       H  0.89167239  0.14743458  0.31614991     0.32400
H1673       H  0.95714051  0.16769625  0.36407709     0.40000
H1674       H  0.94796788  0.29659487  0.13293754     0.31900
H1675       H  0.89928766  0.15190384  0.19165034     0.31900
H1676       H  0.85017059  0.31511981  0.27799109     0.32200
Zr1677     Zr  0.75959119  0.26408364  0.46508444     2.17500
O1678       O  0.80666312  0.26688705  0.42104352    -0.50200
O1679       O  0.75918404  0.32709202  0.46583875    -0.73400
O1680       O  0.73714505  0.26478356  0.40576570    -0.80100
O1681       O  0.83571490  0.21667003  0.03969178    -0.81900
O1682       O  0.67817425  0.25402738  0.40500204    -0.77500
O1683       O  0.82449803  0.25507331  0.47890310    -0.89100
O1684       O  0.72038964  0.33193766  0.00731414    -0.75100
O1685       O  0.69793086  0.28628204  0.47491121    -0.84600
O1686       O  0.75802692  0.26569671  0.02847424    -0.84300
O1687       O  0.72444371  0.21667952  0.45269166    -0.71000
O1688       O  0.78252587  0.19683114  0.00354415    -0.83200
Zr1689     Zr  0.67759944  0.18895624  0.05607721     2.26400
Zr1690     Zr  0.66270981  0.23901599  0.46363059     2.06300
Zr1691     Zr  0.77432130  0.21487509  0.06214991     2.10000
Zr1692     Zr  0.69539654  0.28498787  0.03549563     1.78800
O1693       O  0.81631358  0.17225084  0.09085291    -0.92000
O1694       O  0.64347168  0.32307128  0.01588112    -0.39800
O1695       O  0.71187359  0.23564925  0.07010075    -0.76400
O1696       O  0.65999891  0.23898950  0.02187565    -0.95100
O1697       O  0.68575776  0.17032507  0.99777837    -0.88400
O1698       O  0.73987556  0.16756292  0.04999307    -0.91300
C1699       C  0.74172379  0.35289257  0.48142930     1.02500
C1700       C  0.84838601  0.22739863  0.01116260     1.15400
C1701       C  0.70753549  0.26070166  0.39003331     1.06200
O1702       O  0.61748549  0.28522927  0.44626499    -0.93400
O1703       O  0.60524889  0.21977464  0.48227244    -0.89200
O1704       O  0.61557317  0.18780978  0.03604613    -0.82300
C1705       C  0.59799240  0.19182199  0.00767116     1.12800
O1706       O  0.78183146  0.14609829  0.44166660    -0.95400
Zr1707     Zr  0.74792565  0.14991930  0.99146075     1.88900
O1708       O  0.67910822  0.12673559  0.05802557    -0.72000
O1709       O  0.64084142  0.19634137  0.42510681    -0.51300
O1710       O  0.71327537  0.13628091  0.44124627    -0.96000
O1711       O  0.79363925  0.11056687  0.01981834    -0.53200
O1712       O  0.71844054  0.10382619  0.01695968    -0.72600
C1713       C  0.69484209  0.10133882  0.04083150     0.99800
O1714       O  0.63313373  0.19124216  0.10301514    -0.61400
O1715       O  0.79658503  0.26010986  0.09718910    -0.56200
O1716       O  0.69394191  0.19257335  0.11664195    -0.92900
O1717       O  0.75289326  0.20326013  0.11976262    -0.91300
O1718       O  0.72029215  0.31348374  0.08446406    -0.91600
O1719       O  0.65033369  0.30302523  0.07965214    -0.90400
C1720       C  0.72265919  0.19731288  0.13349920     1.18600
H1721       H  0.77321556  0.28368595  0.03377467     0.34600
H1722       H  0.63489174  0.24705516  0.02580681     0.45400
H1723       H  0.74604307  0.14861471  0.06563702     0.39000
H1724       H  0.72788312  0.20846809  0.42928299     0.35400
H1725       H  0.64922126  0.32847843  0.99161801     0.27200
H1726       H  0.62689209  0.20995756  0.40725321     0.33200
H1727       H  0.69065960  0.12891729  0.45118142     0.39100
H1728       H  0.71820722  0.33828656  0.07828725     0.33500
H1729       H  0.81030061  0.24748592  0.11583739     0.32400
H1730       H  0.80757161  0.14962897  0.08571687     0.34100
H1731       H  0.81465485  0.12401500  0.02253169     0.33100
H1732       H  0.63599515  0.28307872  0.08238090     0.37100
H1733       H  0.61576877  0.21167629  0.09828811     0.29800
H1734       H  0.79898509  0.28720399  0.40653187     0.34000
H1735       H  0.79435030  0.16642630  0.43504478     0.36900
H1736       H  0.81535280  0.26964987  0.08282223     0.29500
H1737       H  0.61930649  0.17104297  0.09978350     0.42400
H1738       H  0.61020544  0.29763772  0.46789871     0.32400
H1739       H  0.61960987  0.32781987  0.52264069     0.40000
H1740       H  0.80153473  0.09252104  0.00256339     0.31900
H1741       H  0.66265685  0.18570448  0.41284986     0.31900
H1742       H  0.80519622  0.24655449  0.40591746     0.32200
Zr1743     Zr  0.76152876  0.43968802  0.29344602     2.17500
O1744       O  0.81083847  0.39422963  0.30280678    -0.50200
O1745       O  0.75940475  0.44243223  0.35635913    -0.73400
O1746       O  0.82155494  0.45973251  0.29391571    -0.80100
O1747       O  0.69929585  0.36758363  0.27319073    -0.81900
O1748       O  0.81733421  0.51692744  0.28086555    -0.77500
O1749       O  0.75391726  0.37844302  0.29415329    -0.89100
O1750       O  0.71218568  0.47908756  0.37567402    -0.75100
O1751       O  0.74375491  0.49776455  0.31075157    -0.84600
O1752       O  0.69918745  0.44100698  0.30828809    -0.84300
O1753       O  0.77312789  0.47376787  0.24349948    -0.71000
O1754       O  0.73183404  0.42152997  0.24277395    -0.83200
Zr1755     Zr  0.66428971  0.01566014  0.22455606     2.26400
Zr1756     Zr  0.75819009  0.02885268  0.25714810     2.06300
Zr1757     Zr  0.66887745  0.42429855  0.25745045     2.10000
Zr1758     Zr  0.68083513  0.49920560  0.32449841     1.78800
O1759       O  0.65673047  0.38571943  0.21038183    -0.92000
O1760       O  0.70512114  0.05065899  0.35496147    -0.39800
O1761       O  0.65041434  0.48274734  0.27431227    -0.76400
O1762       O  0.69573622  0.03414606  0.27425116    -0.95100
O1763       O  0.72633225  0.01066084  0.20773933    -0.88400
O1764       O  0.67862356  0.45968219  0.20808014    -0.91300
C1765       C  0.74008551  0.45775649  0.38054315     1.02500
C1766       C  0.73035198  0.35790672  0.28627608     1.15400
C1767       C  0.83551812  0.48830818  0.28960120     1.06200
O1768       O  0.77295500  0.06991402  0.30089842    -0.93400
O1769       O  0.72969899  0.08632567  0.24134588    -0.89200
O1770       O  0.67397092  0.07689920  0.22202221    -0.82300
C1771       C  0.69837307  0.09688410  0.22930507     1.12800
O1772       O  0.79328726  0.41417465  0.18581345    -0.95400
Zr1773     Zr  0.74141606  0.45710885  0.19386114     1.88900
O1774       O  0.66365744  0.01003120  0.16143757    -0.72000
O1775       O  0.79548125  0.05158595  0.21218890    -0.51300
O1776       O  0.79244217  0.47627209  0.16166706    -0.96000
O1777       O  0.72223776  0.41031042  0.15863163    -0.53200
O1778       O  0.71538781  0.48667524  0.14382112    -0.72600
C1779       C  0.68328952  0.99493020  0.13724806     0.99800
O1780       O  0.61537922  0.05923869  0.20841507    -0.61400
O1781       O  0.63054655  0.39673108  0.29829377    -0.56200
O1782       O  0.60374560  0.99892489  0.23668531    -0.92900
O1783       O  0.60505905  0.44205840  0.24551983    -0.91300
O1784       O  0.63983792  0.46720126  0.35830504    -0.91600
O1785       O  0.63330187  0.04192187  0.33404833    -0.90400
C1786       C  0.58695683  0.47170444  0.24129244     1.18600
H1787       H  0.69578093  0.42535067  0.32709005     0.34600
H1788       H  0.68760623  0.05755280  0.28088654     0.45400
H1789       H  0.66438661  0.45322353  0.18885231     0.39000
H1790       H  0.79826365  0.47111230  0.23665010     0.35400
H1791       H  0.69602988  0.04839603  0.37886291     0.27200
H1792       H  0.81253848  0.03165835  0.20490389     0.33200
H1793       H  0.78429866  0.47927008  0.13752380     0.39100
H1794       H  0.61841287  0.46607677  0.34355347     0.33500
H1795       H  0.64611736  0.39023266  0.31829238     0.32400
H1796       H  0.64979338  0.36459990  0.22186287     0.34100
H1797       H  0.74322106  0.40263023  0.14363843     0.33100
H1798       H  0.63693089  0.06191478  0.31909200     0.37100
H1799       H  0.59962419  0.04761378  0.19266439     0.29800
H1800       H  0.82458788  0.40157762  0.32280394     0.34000
H1801       H  0.80328823  0.41017515  0.20921954     0.36900
H1802       H  0.61297279  0.41556212  0.30712239     0.29500
H1803       H  0.60066549  0.06433745  0.22959014     0.42400
H1804       H  0.79343326  0.08108806  0.29090263     0.32400
H1805       H  0.73169989  0.04612553  0.35686643     0.40000
H1806       H  0.70410608  0.42144838  0.14256002     0.31900
H1807       H  0.77915485  0.05597141  0.19229957     0.31900
H1808       H  0.82740287  0.39492705  0.28270547     0.32200
C1809       C  0.65050027  0.20517712  0.24150168    -0.15300
C1810       C  0.62966141  0.23535436  0.23701208    -0.30400
H1811       H  0.63788406  0.18359118  0.25250303     0.13800
H1812       H  0.64176215  0.25797999  0.22789797     0.14300
C1813       C  0.69053858  0.20209881  0.18971909    -0.15300
C1814       C  0.72146397  0.19609524  0.17143184    -0.30400
H1815       H  0.66529776  0.20833211  0.17606804     0.13800
H1816       H  0.74689395  0.19084462  0.18494960     0.14300
C1817       C  0.70404856  0.16081892  0.23728391    -0.15300
C1818       C  0.68803453  0.13425604  0.22344498    -0.30400
H1819       H  0.72742078  0.15551766  0.25375299     0.13800
H1820       H  0.66433814  0.14044842  0.20753632     0.14300
C1821       C  0.68413678  0.06705224  0.04879899    -0.15300
C1822       C  0.69696037  0.03885469  0.03074519    -0.30400
H1823       H  0.66350944  0.06551013  0.06846278     0.13800
H1824       H  0.71677461  0.04150507  0.01035061     0.14300
C1825       C  0.69197544  0.99106988  0.07311345    -0.15300
C1826       C  0.67251699  0.00300829  0.10119438    -0.30400
H1827       H  0.71566241  0.97272335  0.07678267     0.13800
H1828       H  0.64804667  0.02029784  0.09781751     0.14300
C1829       C  0.64305810  0.00719008  0.03009890    -0.15300
C1830       C  0.62462018  0.97963428  0.03075360    -0.30400
H1831       H  0.62872730  0.03236136  0.02455538     0.13800
H1832       H  0.63002078  0.52393805  0.98577186     0.14300
C1833       C  0.48578787  0.19769096  0.07779252    -0.15300
C1834       C  0.98091758  0.19603261  0.09810276    -0.30400
H1835       H  0.46127965  0.21535907  0.08005678     0.13800
H1836       H  0.95614745  0.18926144  0.08633577     0.14300
C1837       C  0.53948410  0.19173303  0.03767827    -0.15300
C1838       C  0.55909176  0.18626276  0.00842876    -0.30400
H1839       H  0.55300116  0.20153709  0.05980211     0.13800
H1840       H  0.54619561  0.17893366  0.98488976     0.14300
C1841       C  0.00723450  0.13147096  0.05007848    -0.15300
C1842       C  0.99699086  0.15953701  0.03070097    -0.30400
H1843       H  0.02437355  0.13357953  0.07232717     0.13800
H1844       H  0.47490082  0.14288994  0.01581824     0.14300
C1845       C  0.99218470  0.07277786  0.22211498    -0.15300
C1846       C  0.97599362  0.04630068  0.23648771    -0.30400
H1847       H  0.01649427  0.06635745  0.20665911     0.13800
H1848       H  0.95190652  0.05186608  0.25241480     0.14300
C1849       C  0.52806312  0.00311281  0.24742627    -0.15300
C1850       C  0.54680510  0.47350894  0.24097983    -0.30400
H1851       H  0.53883739  0.52389214  0.26070955     0.13800
H1852       H  0.53639020  0.95041266  0.23344209     0.14300
C1853       C  0.96292675  0.00663703  0.17145022    -0.15300
C1854       C  0.99277046  0.00275235  0.19095638    -0.30400
H1855       H  0.92614283  0.50914765  0.18634644     0.13800
H1856       H  0.01886870  0.99653233  0.17831590     0.14300
C1857       C  0.70393568  0.49206377  0.01108355    -0.15300
C1858       C  0.70879462  0.45740369  0.01022278    -0.30400
H1859       H  0.68381446  0.96453995  0.99280596     0.13800
H1860       H  0.69470243  0.44385207  0.02988174     0.14300
C1861       C  0.75148358  0.38784981  0.47305016    -0.15300
C1862       C  0.73618199  0.41661405  0.48922168    -0.30400
H1863       H  0.77294052  0.38948885  0.45430469     0.13800
H1864       H  0.71617244  0.41374173  0.50937256     0.14300
C1865       C  0.78621536  0.45499610  0.48389814    -0.15300
C1866       C  0.79185244  0.44104977  0.01646768    -0.30400
H1867       H  0.78625672  0.45415106  0.96434894     0.13800
H1868       H  0.77854771  0.43387808  0.04008409     0.14300
C1869       C  0.73368203  0.46331377  0.44456464    -0.15300
C1870       C  0.75108609  0.44949247  0.41617841    -0.30400
H1871       H  0.71081991  0.48271590  0.44128389     0.13800
H1872       H  0.77514003  0.43161421  0.41882990     0.14300
C1873       C  0.96848438  0.22396355  0.99148258    -0.15300
C1874       C  0.97767652  0.22297290  0.02497445    -0.30400
H1875       H  0.97972268  0.20891774  0.47250846     0.13800
H1876       H  0.96391699  0.24200528  0.04239886     0.14300
C1877       C  0.95018973  0.25673452  0.43642213    -0.15300
C1878       C  0.92519238  0.25507726  0.41185150    -0.30400
H1879       H  0.97848262  0.25594486  0.42862646     0.13800
H1880       H  0.89650639  0.25729922  0.41778595     0.14300
C1881       C  0.90151552  0.26095279  0.48238454    -0.15300
C1882       C  0.88825318  0.22674900  0.00684715    -0.30400
H1883       H  0.88229382  0.26579682  0.97043549     0.13800
H1884       H  0.89891118  0.21637935  0.51297384     0.14300
C1885       C  0.94273867  0.32348833  0.47354619    -0.15300
C1886       C  0.95571484  0.29290193  0.48761733    -0.30400
H1887       H  0.90923923  0.31454754  0.95357420     0.13800
H1888       H  0.97537332  0.29247335  0.50820256     0.14300
C1889       C  0.71668613  0.22943323  0.27903990    -0.15300
C1890       C  0.71301435  0.22474427  0.24481961    -0.30400
H1891       H  0.70313143  0.21303668  0.29657614     0.13800
H1892       H  0.72654860  0.24144851  0.22757006     0.14300
C1893       C  0.77870074  0.25011978  0.28218987    -0.15300
C1894       C  0.80075682  0.22163563  0.29036291    -0.30400
H1895       H  0.79061426  0.27072783  0.26860039     0.13800
H1896       H  0.78982943  0.19953014  0.30210022     0.14300
C1897       C  0.73807602  0.25541025  0.33338105    -0.15300
C1898       C  0.70741648  0.26212076  0.35198372    -0.30400
H1899       H  0.76336538  0.24967393  0.34707221     0.13800
H1900       H  0.68169916  0.26687294  0.33887437     0.14300
C1901       C  0.72449035  0.29363299  0.28319279    -0.15300
C1902       C  0.74103492  0.32103426  0.29408624    -0.30400
H1903       H  0.70071088  0.29770299  0.26706339     0.13800
H1904       H  0.76503841  0.31597883  0.30983435     0.14300
C1905       C  0.95880396  0.47990340  0.28204868    -0.15300
C1906       C  0.96152047  0.48301136  0.24750602    -0.30400
H1907       H  0.97253610  0.49730936  0.29809141     0.13800
H1908       H  0.95510378  0.96465851  0.22977279     0.14300
C1909       C  0.93787819  0.38769529  0.30144004    -0.15300
C1910       C  0.95273760  0.41561465  0.28890790    -0.30400
H1911       H  0.91531724  0.39224118  0.31948441     0.13800
H1912       H  0.97511077  0.41184784  0.27060505     0.14300
C1913       C  0.94000098  0.45579034  0.33853200    -0.15300
C1914       C  0.97153460  0.45165242  0.35574352    -0.30400
H1915       H  0.91499192  0.46100406  0.35325975     0.13800
H1916       H  0.99689456  0.44749717  0.34146781     0.14300
C1917       C  0.89744547  0.45820005  0.28918970    -0.15300
C1918       C  0.87526004  0.48754366  0.29487418    -0.30400
H1919       H  0.88562632  0.43643761  0.27781994     0.13800
H1920       H  0.88625213  0.51059437  0.30420938     0.14300
C1921       C  0.92589109  0.44830015  0.79780864    -0.01300
C1922       C  0.74967984  0.25434191  0.79787119    -0.01300
C1923       C  0.94144163  0.25130165  0.97444521    -0.01300
C1924       C  0.73341121  0.43681139  0.98340485    -0.01300
C1925       C  0.98937381  0.01014208  0.73015031    -0.01300
C1926       C  0.49696900  0.19353303  0.54644262    -0.01300
C1927       C  0.68995016  0.01914291  0.53816243    -0.01300
C1928       C  0.70129869  0.19934107  0.72782546    -0.01300
Zr1929     Zr  0.91270749  0.44056840  0.97113440     2.17500
O1930       O  0.86268113  0.43919249  0.93094814    -0.50200
O1931       O  0.91874806  0.37726138  0.96819617    -0.73400
O1932       O  0.93095130  0.44281691  0.91020087    -0.80100
O1933       O  0.85548334  0.45912700  0.54471610    -0.81900
O1934       O  0.98792684  0.45893790  0.90616230    -0.77500
O1935       O  0.84949241  0.44161140  0.98931675    -0.89100
O1936       O  0.97425758  0.36078368  0.50885739    -0.75100
O1937       O  0.97525340  0.42103326  0.97630037    -0.84600
O1938       O  0.93244928  0.42788522  0.52914482    -0.84300
O1939       O  0.94353479  0.49092058  0.95884578    -0.71000
O1940       O  0.90359360  0.49647226  0.50552554    -0.83200
Zr1941     Zr  0.00507246  0.50972756  0.55909556     2.26400
Zr1942     Zr  0.50623890  0.48310062  0.96997606     2.06300
Zr1943     Zr  0.91228286  0.47705945  0.56361798     2.10000
Zr1944     Zr  0.99516650  0.41099933  0.53642031     1.78800
O1945       O  0.86210509  0.01514720  0.58459930    -0.92000
O1946       O  0.52371593  0.37005552  0.53486255    -0.39800
O1947       O  0.97507601  0.45945294  0.57242841    -0.76400
O1948       O  0.50798826  0.45341010  0.53792750    -0.95100
O1949       O  0.99778932  0.02258539  0.50053555    -0.88400
O1950       O  0.94292650  0.02243536  0.55335927    -0.91300
C1951       C  0.93804377  0.35165063  0.98196832     1.02500
C1952       C  0.84315380  0.45251796  0.51505105     1.15400
C1953       C  0.95890694  0.44999137  0.89281195     1.06200
O1954       O  0.55549685  0.44239391  0.94860808    -0.93400
O1955       O  0.56483098  0.50162448  0.98315924    -0.89200
O1956       O  0.57542696  0.00436522  0.53991148    -0.82300
C1957       C  0.57471545  0.48856821  0.53208689     1.12800
O1958       O  0.90038391  0.06482724  0.94675442    -0.95400
Zr1959     Zr  0.93502798  0.04144402  0.49535405     1.88900
O1960       O  0.00365783  0.06678878  0.55654086    -0.72000
O1961       O  0.54206671  0.00615362  0.93637976    -0.51300
O1962       O  0.95806520  0.08738231  0.94648063    -0.96000
O1963       O  0.88941004  0.07824694  0.52742273    -0.53200
O1964       O  0.96516079  0.08943547  0.51545638    -0.72600
C1965       C  0.98864699  0.09234877  0.53883207     0.99800
O1966       O  0.52743729  0.50923882  0.62226561    -0.61400
O1967       O  0.89838431  0.43176248  0.60361487    -0.56200
O1968       O  0.98711860  0.00197028  0.61865671    -0.92900
O1969       O  0.92558644  0.49535557  0.62064650    -0.91300
O1970       O  0.97389202  0.37289909  0.58033153    -0.91600
O1971       O  0.50829399  0.39439215  0.59899043    -0.90400
C1972       C  0.95794417  0.99803751  0.63558523     1.18600
H1973       H  0.91818750  0.40897840  0.53385664     0.34600
H1974       H  0.53179423  0.44284257  0.54351251     0.45400
H1975       H  0.93591141  0.04084984  0.56953576     0.39000
H1976       H  0.93815195  0.49974938  0.93599701     0.35400
H1977       H  0.51599705  0.34653195  0.53716476     0.27200
H1978       H  0.55564375  0.99088510  0.91924773     0.33600
H1979       H  0.97958001  0.09815787  0.95426394     0.39100
H1980       H  0.96173933  0.38862159  0.59789846     0.33500
H1981       H  0.87792809  0.44246284  0.61776887     0.32400
H1982       H  0.85751121  0.00866519  0.60882400     0.34100
H1983       H  0.86916185  0.06387045  0.53075960     0.33100
H1984       H  0.50772100  0.36925455  0.60257136     0.37100
H1985       H  0.54383076  0.48755513  0.62317986     0.29800
H1986       H  0.86924714  0.41922904  0.91547918     0.34000
H1987       H  0.87862195  0.05327821  0.95271119     0.36900
H1988       H  0.88769273  0.41429848  0.58944910     0.29500
H1989       H  0.54327192  0.52761904  0.61713883     0.42400
H1990       H  0.56352231  0.45269199  0.92684582     0.32400
H1991       H  0.53304501  0.38000337  0.99280476     0.40000
H1992       H  0.88017005  0.09637106  0.51092056     0.31900
H1993       H  0.05906241  0.01531533  0.90897118     0.31900
H1994       H  0.86322580  0.45989161  0.91615642     0.32200
Zr1995     Zr  0.91998314  0.26738507  0.78795295     2.17500
O1996       O  0.86956141  0.31168138  0.77907103    -0.50200
O1997       O  0.91493554  0.26577869  0.85046171    -0.73400
O1998       O  0.86224438  0.24432387  0.79137509    -0.80100
O1999       O  0.97946165  0.34049058  0.77639423    -0.81900
O2000       O  0.86631285  0.18954949  0.77037858    -0.77500
O2001       O  0.92653845  0.32650121  0.79994847    -0.89100
O2002       O  0.96400320  0.23130494  0.86836437    -0.75100
O2003       O  0.93653447  0.20893542  0.80316702    -0.84600
O2004       O  0.98116152  0.26583252  0.80604158    -0.84300
O2005       O  0.91168645  0.23587484  0.73610095    -0.71000
O2006       O  0.95275258  0.28840292  0.74018844    -0.83200
Zr2007     Zr  0.52598896  0.18756575  0.73205361     2.26400
Zr2008     Zr  0.92909299  0.17706149  0.75153556     2.06300
Zr2009     Zr  0.52137473  0.28090771  0.76122478     2.10000
Zr2010     Zr  0.99803773  0.20690108  0.81998036     1.78800
O2011       O  0.53908167  0.31722678  0.71406340    -0.92000
O2012       O  0.98093310  0.15961071  0.85577777    -0.39800
O2013       O  0.53973480  0.22321885  0.77953314    -0.76400
O2014       O  0.99090063  0.17236277  0.77024347    -0.95100
O2015       O  0.96373416  0.19523584  0.70355690    -0.88400
O2016       O  0.00908046  0.25117847  0.70703972    -0.91300
C2017       C  0.93507751  0.25129444  0.87404408     1.02500
C2018       C  0.94868437  0.34820594  0.79183577     1.15400
C2019       C  0.84846581  0.21655918  0.78324700     1.06200
O2020       O  0.91293750  0.13251478  0.79125535    -0.93400
O2021       O  0.95769843  0.12136895  0.73412754    -0.89200
O2022       O  0.01448366  0.13018205  0.71622971    -0.82300
C2023       C  0.98911847  0.11057193  0.72245316     1.12800
O2024       O  0.89660158  0.29624645  0.67550787    -0.95400
Zr2025     Zr  0.94766541  0.25442561  0.68961503     1.88900
O2026       O  0.52421688  0.18908865  0.66932170    -0.72000
O2027       O  0.89334057  0.15762505  0.70428992    -0.51300
O2028       O  0.90260346  0.23620145  0.65025897    -0.96000
O2029       O  0.97345085  0.30149165  0.65969769    -0.53200
O2030       O  0.97785677  0.22600419  0.64129232    -0.72600
C2031       C  0.00838692  0.20853569  0.63612737     0.99800
O2032       O  0.57464586  0.14201783  0.72004002    -0.61400
O2033       O  0.55616964  0.30916109  0.80388055    -0.56200
O2034       O  0.58662560  0.20678897  0.73591420    -0.92900
O2035       O  0.58380692  0.26449936  0.74605541    -0.91300
O2036       O  0.55584224  0.23664555  0.86255945    -0.91600
O2037       O  0.56453683  0.17256734  0.84250354    -0.90400
C2038       C  0.60127558  0.23515796  0.73962711     1.18600
H2039       H  0.98343195  0.28064157  0.82575287     0.34600
H2040       H  0.99921497  0.14896875  0.77668183     0.45400
H2041       H  0.52290114  0.25116144  0.69336295     0.39000
H2042       H  0.88676930  0.23893689  0.72896390     0.35400
H2043       H  0.98919795  0.13829172  0.84281286     0.27200
H2044       H  0.88513810  0.13557457  0.71245773     0.33200
H2045       H  0.89065372  0.21853557  0.66318961     0.39100
H2046       H  0.55407832  0.22849214  0.88665933     0.33500
H2047       H  0.56921965  0.28999615  0.81693328     0.32400
H2048       H  0.54799122  0.33750859  0.72539559     0.34100
H2049       H  0.96731898  0.32215184  0.67433810     0.33100
H2050       H  0.57887762  0.17325829  0.82089952     0.37100
H2051       H  0.58935713  0.15079718  0.70117284     0.29800
H2052       H  0.85231564  0.30940918  0.79836556     0.34000
H2053       H  0.90284919  0.31859878  0.68471424     0.36900
H2054       H  0.57524219  0.31933459  0.79044833     0.29500
H2055       H  0.59040321  0.14087269  0.74054526     0.42400
H2056       H  0.89895074  0.11736276  0.77722851     0.32400
H2057       H  0.99708170  0.15932196  0.87596084     0.40000
H2058       H  0.95866793  0.30576524  0.63874419     0.31900
H2059       H  0.87108609  0.17389461  0.70402053     0.31900
H2060       H  0.85713638  0.30433934  0.75823972     0.32200
Zr2061     Zr  0.76526792  0.24755076  0.96983879     2.17500
O2062       O  0.81503519  0.25231146  0.92907507    -0.50200
O2063       O  0.76375538  0.31069770  0.96935554    -0.73400
O2064       O  0.74655148  0.24922459  0.90965199    -0.80100
O2065       O  0.83133476  0.23079865  0.53209045    -0.81900
O2066       O  0.68727518  0.24002894  0.90654214    -0.77500
O2067       O  0.82869330  0.23873350  0.98570432    -0.89100
O2068       O  0.71695166  0.35033671  0.50411785    -0.75100
O2069       O  0.70309441  0.26832812  0.97655557    -0.84600
O2070       O  0.75548253  0.28181964  0.52399070    -0.84300
O2071       O  0.73242705  0.19912789  0.95551201    -0.71000
O2072       O  0.77671939  0.21293510  0.49809306    -0.83200
Zr2073     Zr  0.67425474  0.20693395  0.55621278     2.26400
Zr2074     Zr  0.66995091  0.22034821  0.96317113     2.06300
Zr2075     Zr  0.77147760  0.23072672  0.55706514     2.10000
Zr2076     Zr  0.69388154  0.30303914  0.53421367     1.78800
O2077       O  0.81683274  0.18905573  0.58262359    -0.92000
O2078       O  0.64023230  0.34194442  0.52075140    -0.39800
O2079       O  0.71015104  0.25312487  0.56873493    -0.76400
O2080       O  0.65659568  0.25765979  0.52261084    -0.95100
O2081       O  0.67900747  0.18878033  0.49750742    -0.88400
O2082       O  0.73566724  0.18414278  0.54650305    -0.91300
C2083       C  0.74488645  0.33577294  0.98469951     1.02500
C2084       C  0.84406606  0.24188917  0.50387616     1.15400
C2085       C  0.71721674  0.24706589  0.89291599     1.06200
O2086       O  0.62368803  0.26570840  0.94584578    -0.93400
O2087       O  0.61174013  0.20080672  0.97896300    -0.89200
O2088       O  0.61178142  0.20326321  0.53839020    -0.82300
C2089       C  0.59306450  0.20836674  0.51070727     1.12800
O2090       O  0.79777629  0.13455772  0.95117926    -0.95400
Zr2091     Zr  0.74013332  0.16714099  0.48757456     1.88900
O2092       O  0.67356977  0.14467778  0.55918876    -0.72000
O2093       O  0.65602369  0.17912096  0.91911918    -0.51300
O2094       O  0.72649643  0.11706735  0.94362433    -0.96000
O2095       O  0.79274721  0.12924699  0.50570110    -0.53200
O2096       O  0.71158386  0.12249773  0.51682020    -0.72600
C2097       C  0.68895105  0.11943301  0.54145390     0.99800
O2098       O  0.62612381  0.21737825  0.59931291    -0.61400
O2099       O  0.79335761  0.27736392  0.59041706    -0.56200
O2100       O  0.69749411  0.20354048  0.61533864    -0.92900
O2101       O  0.75631999  0.21485626  0.61528109    -0.91300
O2102       O  0.72522958  0.33465650  0.57688670    -0.91600
O2103       O  0.65652088  0.31969985  0.58465279    -0.90400
C2104       C  0.72761809  0.20697700  0.63054674     1.18600
H2105       H  0.77161264  0.29920819  0.52856770     0.34600
H2106       H  0.63173872  0.26588744  0.52769594     0.45400
H2107       H  0.74254851  0.16496970  0.56168021     0.39000
H2108       H  0.73710114  0.19152028  0.93203943     0.35400
H2109       H  0.64239007  0.34678045  0.49579172     0.27200
H2110       H  0.64928416  0.15876370  0.93206622     0.33200
H2111       H  0.70131838  0.11334492  0.94993848     0.39100
H2112       H  0.71501275  0.35903781  0.57443836     0.33500
H2113       H  0.80205977  0.26635344  0.61221971     0.32400
H2114       H  0.80526776  0.16729254  0.58437119     0.34100
H2115       H  0.78341451  0.10691946  0.51119976     0.33100
H2116       H  0.63765068  0.30348288  0.58494777     0.37100
H2117       H  0.62865970  0.19711756  0.61487448     0.29800
H2118       H  0.80791834  0.27289408  0.91473586     0.34000
H2119       H  0.78917808  0.14375673  0.92858590     0.36900
H2120       H  0.81564939  0.28277908  0.57829078     0.29500
H2121       H  0.63278776  0.23692818  0.61345131     0.42400
H2122       H  0.60628068  0.26820278  0.96538891     0.32400
H2123       H  0.62338816  0.30829849  0.01423486     0.40000
H2124       H  0.79945329  0.13846116  0.52827043     0.31900
H2125       H  0.63312291  0.18936385  0.90885145     0.31900
H2126       H  0.81503507  0.23232549  0.91323637     0.32200
Zr2127     Zr  0.74558008  0.42822959  0.79367275     2.17500
O2128       O  0.79385154  0.38146273  0.80094057    -0.50200
O2129       O  0.74436924  0.42846143  0.85704384    -0.73400
O2130       O  0.80723175  0.44755756  0.79289958    -0.80100
O2131       O  0.67690520  0.36264983  0.76664264    -0.81900
O2132       O  0.80365213  0.50481496  0.77958258    -0.77500
O2133       O  0.73313265  0.36688760  0.78780308    -0.89100
O2134       O  0.69905075  0.46659303  0.87791573    -0.75100
O2135       O  0.73137410  0.48700872  0.81133028    -0.84600
O2136       O  0.68327957  0.43401886  0.81085968    -0.84300
O2137       O  0.75673560  0.46311726  0.74386934    -0.71000
O2138       O  0.71189271  0.41371790  0.74415836    -0.83200
Zr2139     Zr  0.66983085  0.01753763  0.72637206     2.26400
Zr2140     Zr  0.76357421  0.02812815  0.76187244     2.06300
Zr2141     Zr  0.64944778  0.42123344  0.76087714     2.10000
Zr2142     Zr  0.66909817  0.49284691  0.82760517     1.78800
O2143       O  0.62395378  0.38100802  0.72211187    -0.92000
O2144       O  0.70452281  0.04389022  0.86105102    -0.39800
O2145       O  0.63540058  0.47996918  0.77774306    -0.76400
O2146       O  0.70065327  0.03303660  0.77754658    -0.95100
O2147       O  0.73229910  0.01352377  0.71085958    -0.88400
O2148       O  0.66001351  0.45498728  0.71064375    -0.91300
C2149       C  0.72600703  0.44370318  0.88200956     1.02500
C2150       C  0.70747718  0.34917801  0.77755535     1.15400
C2151       C  0.82154519  0.47615414  0.78823848     1.06200
O2152       O  0.77511002  0.06695569  0.80893958    -0.93400
O2153       O  0.73791037  0.08607192  0.74401949    -0.89200
O2154       O  0.68204047  0.07831465  0.72386733    -0.82300
C2155       C  0.70730572  0.09747726  0.73096195     1.12800
O2156       O  0.77245070  0.40330578  0.68602690    -0.95400
Zr2157     Zr  0.72250373  0.44818532  0.69512696     1.88900
O2158       O  0.67165391  0.01806171  0.66332319    -0.72000
O2159       O  0.80571079  0.05119315  0.72155373    -0.51300
O2160       O  0.77091197  0.46478090  0.65789986    -0.96000
O2161       O  0.69819066  0.40093189  0.66456607    -0.53200
O2162       O  0.69715310  0.47663604  0.64444614    -0.72600
C2163       C  0.69331134  0.00676535  0.63886222     0.99800
O2164       O  0.62029809  0.06326262  0.71960268    -0.61400
O2165       O  0.61624346  0.40108591  0.81028713    -0.56200
O2166       O  0.60885510  0.99830042  0.73270114    -0.92900
O2167       O  0.58713116  0.44046062  0.74708002    -0.91300
O2168       O  0.62272950  0.46900249  0.86240064    -0.91600
O2169       O  0.63562142  0.03508947  0.83562709    -0.90400
C2170       C  0.56999362  0.47025897  0.74210894     1.18600
H2171       H  0.67910945  0.41843399  0.82954101     0.34600
H2172       H  0.69258784  0.05637378  0.78455704     0.45400
H2173       H  0.64485482  0.44923119  0.69182003     0.39000
H2174       H  0.78162631  0.45977400  0.73630346     0.35400
H2175       H  0.73098935  0.04001457  0.86434387     0.27200
H2176       H  0.82397689  0.03158265  0.71612946     0.33200
H2177       H  0.77484236  0.48836228  0.66560163     0.39100
H2178       H  0.60434408  0.46324062  0.84563229     0.33500
H2179       H  0.59057691  0.40938366  0.80630709     0.32400
H2180       H  0.60892116  0.36754630  0.73718584     0.34100
H2181       H  0.69659503  0.38267396  0.68214748     0.33100
H2182       H  0.63650924  0.05371120  0.81833951     0.37100
H2183       H  0.60518126  0.05576935  0.70066849     0.29800
H2184       H  0.80817789  0.38804927  0.82084900     0.34000
H2185       H  0.78902991  0.40559283  0.70553263     0.36900
H2186       H  0.61738914  0.37572075  0.80735753     0.29500
H2187       H  0.60510396  0.06283477  0.74070613     0.42400
H2188       H  0.75356585  0.08409690  0.81011352     0.32400
H2189       H  0.70105201  0.06459420  0.84616798     0.40000
H2190       H  0.71762313  0.39146280  0.64855712     0.31900
H2191       H  0.79192894  0.05515950  0.69995399     0.31900
H2192       H  0.81002698  0.38256858  0.78059831     0.32200
C2193       C  0.66231707  0.20479406  0.74094834    -0.15300
C2194       C  0.64077434  0.23410658  0.73551244    -0.30400
H2195       H  0.65046123  0.18313947  0.75271351     0.13800
H2196       H  0.65209768  0.25683859  0.72555782     0.14300
C2197       C  0.70037369  0.20439083  0.68866232    -0.15300
C2198       C  0.72996261  0.20191413  0.66835326    -0.30400
H2199       H  0.67423393  0.20984764  0.67637518     0.13800
H2200       H  0.75650684  0.19750403  0.67995737     0.14300
C2201       C  0.71613848  0.16157883  0.73548461    -0.15300
C2202       C  0.69902418  0.13494008  0.72305518    -0.30400
H2203       H  0.73960978  0.15630512  0.75182661     0.13800
H2204       H  0.67528517  0.14130096  0.70724997     0.14300
C2205       C  0.67988122  0.08427997  0.54949234    -0.15300
C2206       C  0.69721144  0.05668533  0.53316499    -0.30400
H2207       H  0.65825779  0.08155215  0.56782258     0.13800
H2208       H  0.71816404  0.06176318  0.51467555     0.14300
C2209       C  0.70173572  0.00729026  0.57456484    -0.15300
C2210       C  0.68380882  0.01875469  0.60364731    -0.30400
H2211       H  0.72487042  0.98803905  0.57703776     0.13800
H2212       H  0.66009988  0.03713535  0.60208314     0.14300
C2213       C  0.64915472  0.01635192  0.53467251    -0.15300
C2214       C  0.63278040  0.99873384  0.51056347    -0.30400
H2215       H  0.63160620  0.03018903  0.55363873     0.13800
H2216       H  0.62722525  0.46085745  0.54463517     0.14300
C2217       C  0.48659810  0.19915204  0.58440280    -0.15300
C2218       C  0.01866786  0.20153366  0.60012977    -0.30400
H2219       H  0.46095988  0.21403351  0.59053959     0.13800
H2220       H  0.04678181  0.20189723  0.59295503     0.14300
C2221       C  0.53513830  0.20457000  0.54088350    -0.15300
C2222       C  0.55481240  0.20038188  0.51161611    -0.30400
H2223       H  0.54802547  0.21575766  0.56267893     0.13800
H2224       H  0.54275667  0.19121155  0.48838093     0.14300
C2225       C  0.99924933  0.12738062  0.54623910    -0.15300
C2226       C  0.98699067  0.15642741  0.52854407    -0.30400
H2227       H  0.01696571  0.12935405  0.56804553     0.13800
H2228       H  0.47626978  0.15094629  0.51648464     0.14300
C2229       C  0.99718502  0.07283006  0.71709697    -0.15300
C2230       C  0.97805814  0.04910561  0.73281215    -0.30400
H2231       H  0.02108401  0.06403803  0.70191605     0.13800
H2232       H  0.95474734  0.05794055  0.74878902     0.14300
C2233       C  0.53262555  0.99977344  0.74700573    -0.15300
C2234       C  0.52996041  0.47212982  0.74163141    -0.30400
H2235       H  0.52233342  0.52201348  0.76188248     0.13800
H2236       H  0.54237073  0.94950192  0.72627146     0.14300
C2237       C  0.95776290  0.00368461  0.67330905    -0.15300
C2238       C  0.98832692  0.00025418  0.69201518    -0.30400
H2239       H  0.92466838  0.51388808  0.68445673     0.13800
H2240       H  0.01361805  0.99151241  0.67894098     0.14300
C2241       C  0.69100737  0.48455784  0.51216489    -0.15300
C2242       C  0.72712680  0.47877889  0.50770797    -0.30400
H2243       H  0.72853867  0.01115015  0.49155677     0.13800
H2244       H  0.74388776  0.49324970  0.52400730     0.14300
C2245       C  0.75143570  0.37173264  0.97609510    -0.15300
C2246       C  0.73039808  0.39857177  0.99022372    -0.30400
H2247       H  0.77365595  0.37599648  0.95887109     0.13800
H2248       H  0.70919492  0.39247667  0.00799855     0.14300
C2249       C  0.77271050  0.44505850  0.98706111    -0.15300
C2250       C  0.80450485  0.44809339  0.51313190    -0.30400
H2251       H  0.80086851  0.46368392  0.46165847     0.13800
H2252       H  0.79031557  0.44122894  0.53637716     0.14300
C2253       C  0.71994874  0.44596131  0.94670957    -0.15300
C2254       C  0.73756517  0.43398445  0.91763652    -0.30400
H2255       H  0.69549113  0.46353512  0.94401278     0.13800
H2256       H  0.76235157  0.41700049  0.91979520     0.14300
C2257       C  0.96491321  0.22716733  0.49011265    -0.15300
C2258       C  0.96988911  0.22141420  0.52396294    -0.30400
H2259       H  0.98312169  0.20452518  0.97505799     0.13800
H2260       H  0.95519968  0.23960419  0.54169987     0.14300
C2261       C  0.94758838  0.24646331  0.93571304    -0.15300
C2262       C  0.92473064  0.25789912  0.91039291    -0.30400
H2263       H  0.97380374  0.23386116  0.92778091     0.13800
H2264       H  0.89862430  0.27185605  0.91588992     0.14300
C2265       C  0.90178975  0.24794658  0.98363753    -0.15300
C2266       C  0.88402686  0.23800731  0.50012238    -0.30400
H2267       H  0.88500215  0.28289175  0.47150645     0.13800
H2268       H  0.90587119  0.20969798  0.02287979     0.14300
C2269       C  0.93116541  0.31652515  0.97138977    -0.15300
C2270       C  0.95001159  0.28765978  0.98387696    -0.30400
H2271       H  0.92355215  0.32332631  0.45259633     0.13800
H2272       H  0.97196026  0.29041382  0.00164919     0.14300
C2273       C  0.72522965  0.23043097  0.77939249    -0.15300
C2274       C  0.72382993  0.22593773  0.74481372    -0.30400
H2275       H  0.71001768  0.21390134  0.79531887     0.13800
H2276       H  0.73882492  0.24223453  0.72843865     0.14300
C2277       C  0.78843457  0.24716104  0.78509818    -0.15300
C2278       C  0.80911980  0.21693921  0.78857453    -0.30400
H2279       H  0.80127320  0.26884236  0.77442805     0.13800
H2280       H  0.79758015  0.19379872  0.79707265     0.14300
C2281       C  0.74860487  0.24745304  0.83653697    -0.15300
C2282       C  0.71782260  0.25255327  0.85529046    -0.30400
H2283       H  0.77366382  0.23893646  0.84965930     0.13800
H2284       H  0.69238023  0.25993443  0.84241819     0.14300
C2285       C  0.74062701  0.29353356  0.79429652    -0.15300
C2286       C  0.71281724  0.31060333  0.77780269    -0.30400
H2287       H  0.75903230  0.30901719  0.80758142     0.13800
H2288       H  0.69300396  0.29630146  0.76526898     0.14300
C2289       C  0.94530291  0.47754604  0.78171664    -0.15300
C2290       C  0.95235592  0.48004581  0.74761077    -0.30400
H2291       H  0.95616666  0.49599069  0.79884328     0.13800
H2292       H  0.93436578  0.99446076  0.74335367     0.14300
C2293       C  0.93544107  0.38396554  0.80160285    -0.15300
C2294       C  0.94566731  0.41305591  0.78757166    -0.30400
H2295       H  0.91289599  0.38650009  0.81985038     0.13800
H2296       H  0.96783094  0.41137517  0.76896688     0.14300
C2297       C  0.92677421  0.45126669  0.83715543    -0.15300
C2298       C  0.95792227  0.44874848  0.85478997    -0.30400
H2299       H  0.90137057  0.45417052  0.85152551     0.13800
H2300       H  0.98347280  0.44674899  0.84071583     0.14300
C2301       C  0.88598367  0.44981974  0.78672754    -0.15300
C2302       C  0.86117609  0.47687768  0.79369560    -0.30400
H2303       H  0.87665960  0.42711095  0.77470539     0.13800
H2304       H  0.87027401  0.50043757  0.80402479     0.14300
C2305       C  0.93977003  0.95178151  0.29706374    -0.01300
C2306       C  0.73771837  0.75596297  0.29619030    -0.01300
C2307       C  0.93627930  0.75577539  0.47834378    -0.01300
C2308       C  0.74116426  0.94207212  0.48259716    -0.01300
C2309       C  0.98428098  0.50849817  0.22913787    -0.01300
C2310       C  0.48770643  0.69990850  0.05399283    -0.01300
C2311       C  0.68049891  0.51325037  0.03831205    -0.01300
C2312       C  0.68702592  0.70138037  0.22842560    -0.01300
Zr2313     Zr  0.92041507  0.94493496  0.47007991     2.17500
O2314       O  0.87093045  0.94930834  0.42885340    -0.50200
O2315       O  0.92134604  0.88205751  0.46760849    -0.73400
O2316       O  0.94077333  0.94584350  0.40965128    -0.80100
O2317       O  0.86169875  0.96026858  0.04392076    -0.81900
O2318       O  0.99941573  0.95778231  0.40741874    -0.77500
O2319       O  0.85726169  0.94594281  0.48849264    -0.89100
O2320       O  0.96625768  0.86602568  0.00901350    -0.75100
O2321       O  0.98275810  0.92425717  0.47543811    -0.84600
O2322       O  0.93628040  0.93211475  0.02581862    -0.84300
O2323       O  0.95350111  0.99387068  0.45828010    -0.71000
O2324       O  0.90896300  0.00054291  0.00321207    -0.83200
Zr2325     Zr  0.01266848  0.00892277  0.05662061     2.26400
Zr2326     Zr  0.51892857  0.97185256  0.46900706     2.06300
Zr2327     Zr  0.91804582  0.98094082  0.06144645     2.10000
Zr2328     Zr  0.99825978  0.91210288  0.03159797     1.78800
O2329       O  0.85505756  0.51139013  0.08696485    -0.92000
O2330       O  0.53557729  0.86435899  0.02595221    -0.39800
O2331       O  0.98035488  0.96008563  0.06883766    -0.76400
O2332       O  0.51994173  0.94825053  0.03413507    -0.95100
O2333       O  0.98879993  0.51924108  0.00052636    -0.88400
O2334       O  0.93561123  0.51833237  0.05454707    -0.91300
C2335       C  0.93694944  0.85621406  0.48422648     1.02500
C2336       C  0.84983377  0.95077652  0.01487729     1.15400
C2337       C  0.97009250  0.95065025  0.39316095     1.06200
O2338       O  0.55938005  0.92276643  0.44829112    -0.93400
O2339       O  0.57922068  0.98416971  0.48478583    -0.89200
O2340       O  0.56354121  0.51212050  0.04094136    -0.82300
C2341       C  0.58601533  0.98353086  0.02619897     1.12800
O2342       O  0.88854581  0.55810228  0.45132762    -0.95400
Zr2343     Zr  0.92604963  0.53802226  0.99725191     1.88900
O2344       O  0.99879967  0.56166083  0.05943065    -0.72000
O2345       O  0.52461096  0.52004557  0.44521623    -0.51300
O2346       O  0.95155151  0.58248316  0.44681864    -0.96000
O2347       O  0.87830621  0.56922919  0.03189755    -0.53200
O2348       O  0.95746687  0.58422950  0.02066554    -0.72600
C2349       C  0.98225218  0.58712924  0.04296463     0.99800
O2350       O  0.54363860  0.99314140  0.11783279    -0.61400
O2351       O  0.89671243  0.93947600  0.10200403    -0.56200
O2352       O  0.97960102  0.50409906  0.11762971    -0.92900
O2353       O  0.93497842  0.99534211  0.11935982    -0.91300
O2354       O  0.98109656  0.88340159  0.08420721    -0.91600
O2355       O  0.52657079  0.88385494  0.08998165    -0.90400
C2356       C  0.95138794  0.49816838  0.13512334     1.18600
H2357       H  0.92093934  0.91419226  0.03108453     0.34600
H2358       H  0.54398798  0.93802313  0.03916518     0.45400
H2359       H  0.92903741  0.53662667  0.07099708     0.39000
H2360       H  0.94926639  0.00243866  0.43516631     0.35400
H2361       H  0.53155762  0.86066675  0.00107462     0.27200
H2362       H  0.53773166  0.50868052  0.42526827     0.33600
H2363       H  0.93967327  0.60583784  0.45219659     0.39100
H2364       H  0.95665805  0.87655270  0.07965948     0.33500
H2365       H  0.91821513  0.93086247  0.11551950     0.32400
H2366       H  0.85655420  0.51053579  0.11243404     0.34100
H2367       H  0.85739326  0.55552673  0.02984251     0.33100
H2368       H  0.53084970  0.90523805  0.10249111     0.37100
H2369       H  0.55905817  0.97108430  0.11446176     0.29800
H2370       H  0.87646820  0.93027229  0.41206369     0.34000
H2371       H  0.87997992  0.53531521  0.44649773     0.36900
H2372       H  0.88090675  0.95351411  0.11851568     0.29500
H2373       H  0.56019709  0.01143931  0.11564768     0.42400
H2374       H  0.58352632  0.93116885  0.44593303     0.32400
H2375       H  0.55013415  0.88355592  0.50167281     0.40000
H2376       H  0.87121370  0.59072616  0.01893332     0.31900
H2377       H  0.05018976  0.53252899  0.42803860     0.31900
H2378       H  0.87323338  0.97078743  0.41566948     0.32200
Zr2379     Zr  0.91196953  0.77030880  0.29130441     2.17500
O2380       O  0.86189328  0.81607292  0.29067578    -0.50200
O2381       O  0.91107440  0.76870510  0.35434328    -0.73400
O2382       O  0.85249140  0.74882766  0.29296132    -0.80100
O2383       O  0.97684050  0.84081349  0.27488314    -0.81900
O2384       O  0.85673633  0.69251437  0.27605456    -0.77500
O2385       O  0.92279005  0.83055889  0.29867167    -0.89100
O2386       O  0.96174752  0.73621642  0.37183256    -0.75100
O2387       O  0.92798051  0.71169878  0.30746430    -0.84600
O2388       O  0.97382337  0.76695500  0.30723027    -0.84300
O2389       O  0.90219987  0.73686298  0.24065579    -0.71000
O2390       O  0.94381517  0.78800230  0.24115872    -0.83200
Zr2391     Zr  0.51319548  0.69158771  0.24015566     2.26400
Zr2392     Zr  0.91924180  0.67795350  0.25703386     2.06300
Zr2393     Zr  0.50697595  0.78579568  0.27046111     2.10000
Zr2394     Zr  0.99021304  0.70815874  0.32230508     1.78800
O2395       O  0.51802900  0.82826267  0.22637913    -0.92000
O2396       O  0.97021646  0.66209968  0.35814213    -0.39800
O2397       O  0.52495504  0.72759489  0.28818202    -0.76400
O2398       O  0.98169735  0.67293716  0.27346169    -0.95100
O2399       O  0.95260857  0.69396330  0.20725179    -0.88400
O2400       O  0.99833490  0.74956275  0.20717321    -0.91300
C2401       C  0.93271914  0.75591157  0.37773563     1.02500
C2402       C  0.94681755  0.85068718  0.29035502     1.15400
C2403       C  0.83866341  0.72052866  0.28653378     1.06200
O2404       O  0.90394149  0.63493456  0.29882872    -0.93400
O2405       O  0.94705806  0.62076581  0.24040460    -0.89200
O2406       O  0.00334091  0.62951129  0.22082152    -0.82300
C2407       C  0.97829518  0.60989456  0.22793726     1.12800
O2408       O  0.88298066  0.79109455  0.17660574    -0.95400
Zr2409     Zr  0.93625678  0.75255577  0.19160823     1.88900
O2410       O  0.51425494  0.69026555  0.17749999    -0.72000
O2411       O  0.88046499  0.65971585  0.21166187    -0.51300
O2412       O  0.89185804  0.72585203  0.15752847    -0.96000
O2413       O  0.95018741  0.80366362  0.15981856    -0.53200
O2414       O  0.96685295  0.72584443  0.14167951    -0.72600
C2415       C  0.99571578  0.70548520  0.13677493     0.99800
O2416       O  0.56217166  0.64482697  0.24187712    -0.61400
O2417       O  0.54670507  0.81031101  0.31142418    -0.56200
O2418       O  0.57281713  0.71141126  0.23893826    -0.92900
O2419       O  0.56973226  0.76851185  0.25243185    -0.91300
O2420       O  0.53953325  0.73607963  0.37269990    -0.91600
O2421       O  0.54781408  0.67377383  0.34831158    -0.90400
C2422       C  0.58728781  0.73957368  0.24357492     1.18600
H2423       H  0.97733697  0.78225256  0.32626549     0.34600
H2424       H  0.98992735  0.64965584  0.28032992     0.45400
H2425       H  0.51235387  0.75552752  0.20231988     0.39000
H2426       H  0.87718245  0.73997423  0.23386237     0.35400
H2427       H  0.94576248  0.67092054  0.36648869     0.27200
H2428       H  0.89710633  0.65248939  0.19230835     0.33200
H2429       H  0.87245539  0.72117720  0.17401322     0.39100
H2430       H  0.53350671  0.76143109  0.37195174     0.33500
H2431       H  0.53100583  0.81829403  0.33120978     0.32400
H2432       H  0.53903008  0.81781453  0.21281122     0.34100
H2433       H  0.97397211  0.79707487  0.14872308     0.33100
H2434       H  0.54365511  0.65187853  0.33669875     0.37100
H2435       H  0.57825271  0.64837791  0.22195554     0.29800
H2436       H  0.84697782  0.81244430  0.31141295     0.34000
H2437       H  0.87018643  0.79623517  0.19881893     0.36900
H2438       H  0.56227364  0.79021943  0.32040451     0.29500
H2439       H  0.57644297  0.64918469  0.26258242     0.42400
H2440       H  0.88603689  0.62198911  0.28700649     0.32400
H2441       H  0.96592728  0.64348386  0.34172283     0.40000
H2442       H  0.95508269  0.82060081  0.17781735     0.31900
H2443       H  0.87201633  0.63793977  0.22028022     0.31900
H2444       H  0.84671066  0.81101317  0.27081737     0.32200
Zr2445     Zr  0.75876699  0.75296768  0.46860294     2.17500
O2446       O  0.80812856  0.74167226  0.42685989    -0.50200
O2447       O  0.76122118  0.81534668  0.46622750    -0.73400
O2448       O  0.73791278  0.75725006  0.40877423    -0.80100
O2449       O  0.82155199  0.72946281  0.03365524    -0.81900
O2450       O  0.67809077  0.74966839  0.40747315    -0.77500
O2451       O  0.82095973  0.75350350  0.48699605    -0.89100
O2452       O  0.71595523  0.84487048  0.00703988    -0.75100
O2453       O  0.69728146  0.77606505  0.47615263    -0.84600
O2454       O  0.74635047  0.77548390  0.02414709    -0.84300
O2455       O  0.72377911  0.70603200  0.45547074    -0.71000
O2456       O  0.76716265  0.70675416  0.99835827    -0.83200
Zr2457     Zr  0.66518299  0.70227057  0.05629676     2.26400
Zr2458     Zr  0.66202632  0.72925590  0.46406398     2.06300
Zr2459     Zr  0.76194407  0.72445595  0.05743009     2.10000
Zr2460     Zr  0.68536271  0.79876284  0.03306758     1.78800
O2461       O  0.80139610  0.67507379  0.07794870    -0.92000
O2462       O  0.63509386  0.83577576  0.00881223    -0.39800
O2463       O  0.70109074  0.74878997  0.06833285    -0.76400
O2464       O  0.64783794  0.75330295  0.02272675    -0.95100
O2465       O  0.66895608  0.68406691  0.99762262    -0.88400
O2466       O  0.72592412  0.67823367  0.04649841    -0.91300
C2467       C  0.74463402  0.84107216  0.48251088     1.02500
C2468       C  0.83360019  0.74012184  0.00494297     1.15400
C2469       C  0.70787249  0.75557854  0.39286958     1.06200
O2470       O  0.61528381  0.77538488  0.44988477    -0.93400
O2471       O  0.60341737  0.71136752  0.48040132    -0.89200
O2472       O  0.60229980  0.70274907  0.04072890    -0.82300
C2473       C  0.58304706  0.70761305  0.01355538     1.12800
O2474       O  0.78714158  0.64166624  0.44920592    -0.95400
Zr2475     Zr  0.72987855  0.66160655  0.98731327     1.88900
O2476       O  0.66419453  0.63955589  0.05849352    -0.72000
O2477       O  0.64555068  0.68682094  0.42202314    -0.51300
O2478       O  0.71825866  0.62445296  0.44314244    -0.96000
O2479       O  0.78072689  0.62205615  0.00670861    -0.53200
O2480       O  0.70000627  0.61687230  0.01477822    -0.72600
C2481       C  0.67805588  0.61408299  0.04003167     0.99800
O2482       O  0.61623511  0.70555051  0.09901482    -0.61400
O2483       O  0.79069182  0.76546487  0.09281212    -0.56200
O2484       O  0.68611197  0.70255413  0.11592860    -0.92900
O2485       O  0.74520955  0.71257610  0.11647392    -0.91300
O2486       O  0.70780976  0.83447267  0.07802089    -0.91600
O2487       O  0.64207666  0.81480087  0.07930774    -0.90400
C2488       C  0.71582642  0.70620950  0.13157743     1.18600
H2489       H  0.76301659  0.79233409  0.02895342     0.34600
H2490       H  0.62321343  0.76222248  0.02800978     0.45400
H2491       H  0.73245119  0.65898420  0.06169032     0.39000
H2492       H  0.72774585  0.69847993  0.43188369     0.35400
H2493       H  0.63798755  0.85912128  0.01788606     0.27200
H2494       H  0.61988007  0.69373774  0.41659750     0.33200
H2495       H  0.72927475  0.60047077  0.44667841     0.39100
H2496       H  0.72809964  0.81972667  0.08840351     0.33500
H2497       H  0.77304778  0.77228982  0.11147692     0.32400
H2498       H  0.81869306  0.68510038  0.09334669     0.34100
H2499       H  0.78122247  0.60183629  0.99111476     0.33100
H2500       H  0.63276908  0.79283454  0.08624236     0.37100
H2501       H  0.62143154  0.68532733  0.11433445     0.29800
H2502       H  0.80683859  0.76212791  0.41156423     0.34000
H2503       H  0.80086542  0.66216566  0.44803711     0.36900
H2504       H  0.81064934  0.75138655  0.10449585     0.29500
H2505       H  0.61932153  0.72596467  0.11354682     0.42400
H2506       H  0.60807987  0.77027484  0.42605172     0.32400
H2507       H  0.61956451  0.82298903  0.52015236     0.40000
H2508       H  0.77293037  0.61329259  0.02925970     0.31900
H2509       H  0.65878322  0.69096830  0.40039215     0.31900
H2510       H  0.80137145  0.72255831  0.41216626     0.32200
Zr2511     Zr  0.76430056  0.93768257  0.29395022     2.17500
O2512       O  0.81466295  0.89336624  0.30354163    -0.50200
O2513       O  0.76026243  0.93790376  0.35721829    -0.73400
O2514       O  0.82424789  0.95883876  0.29319037    -0.80100
O2515       O  0.69890437  0.86734297  0.27941781    -0.81900
O2516       O  0.82101660  0.01426519  0.27400456    -0.77500
O2517       O  0.75577113  0.87663036  0.29559926    -0.89100
O2518       O  0.71269814  0.97428467  0.37631045    -0.75100
O2519       O  0.74882726  0.99667303  0.30896915    -0.84600
O2520       O  0.70209658  0.94155485  0.31026194    -0.84300
O2521       O  0.77477071  0.96927694  0.24180095    -0.71000
O2522       O  0.73256676  0.91817321  0.24503980    -0.83200
Zr2523     Zr  0.66189099  0.51810476  0.22568748     2.26400
Zr2524     Zr  0.75491079  0.53224460  0.26097618     2.06300
Zr2525     Zr  0.66989928  0.92373682  0.26119545     2.10000
Zr2526     Zr  0.68631771  0.00067117  0.32460816     1.78800
O2527       O  0.65712510  0.88351707  0.21581829    -0.92000
O2528       O  0.68597373  0.55152957  0.35781036    -0.39800
O2529       O  0.65367707  0.98323224  0.27578276    -0.76400
O2530       O  0.69185231  0.53553850  0.27659511    -0.95100
O2531       O  0.72425585  0.51561019  0.21036880    -0.88400
O2532       O  0.67868993  0.95629353  0.20977026    -0.91300
C2533       C  0.73971247  0.95179777  0.38140782     1.02500
C2534       C  0.73068099  0.85691957  0.29041972     1.15400
C2535       C  0.83863201  0.98663412  0.28556564     1.06200
O2536       O  0.76965077  0.57598480  0.30201466    -0.93400
O2537       O  0.72597809  0.58931774  0.24379287    -0.89200
O2538       O  0.67102073  0.57939248  0.22288921    -0.82300
C2539       C  0.69511967  0.59957571  0.23049450     1.12800
O2540       O  0.79211368  0.90753972  0.18419704    -0.95400
Zr2541     Zr  0.74096348  0.95096733  0.19391499     1.88900
O2542       O  0.66260603  0.51507854  0.16283187    -0.72000
O2543       O  0.79337644  0.55154059  0.21512902    -0.51300
O2544       O  0.78571015  0.97021788  0.15394984    -0.96000
O2545       O  0.71888605  0.90134242  0.16551789    -0.53200
O2546       O  0.71161037  0.97412157  0.14242967    -0.72600
C2547       C  0.68523271  0.50476873  0.13883346     0.99800
O2548       O  0.61205563  0.56212977  0.21328217    -0.61400
O2549       O  0.62927234  0.90044243  0.30287968    -0.56200
O2550       O  0.60148590  0.50000896  0.23657427    -0.92900
O2551       O  0.60646392  0.94161596  0.24900176    -0.91300
O2552       O  0.63790530  0.98146975  0.36016249    -0.91600
O2553       O  0.62332136  0.53416825  0.33342545    -0.90400
C2554       C  0.58886502  0.97108366  0.24282173     1.18600
H2555       H  0.69824134  0.92658242  0.32951048     0.34600
H2556       H  0.68287931  0.55868881  0.28349963     0.45400
H2557       H  0.66362367  0.94924592  0.19142496     0.39000
H2558       H  0.79977556  0.96591078  0.23459009     0.35400
H2559       H  0.67990938  0.54540054  0.38181883     0.27200
H2560       H  0.80826721  0.53035106  0.20740284     0.33200
H2561       H  0.80582228  0.97607700  0.16866481     0.39100
H2562       H  0.63983736  0.95610230  0.35701636     0.33500
H2563       H  0.62622717  0.87691307  0.29439456     0.32400
H2564       H  0.65007207  0.86290497  0.22813267     0.34100
H2565       H  0.72613038  0.88143452  0.18070353     0.33100
H2566       H  0.60812584  0.52842744  0.31381838     0.37100
H2567       H  0.59623727  0.55159216  0.19674959     0.29800
H2568       H  0.82798235  0.90110893  0.32365132     0.34000
H2569       H  0.80985189  0.91191868  0.20214235     0.36900
H2570       H  0.64351726  0.89666323  0.32421768     0.29500
H2571       H  0.59764084  0.56540743  0.23488288     0.42400
H2572       H  0.74604555  0.58572622  0.31166797     0.32400
H2573       H  0.71221503  0.55390551  0.35816373     0.40000
H2574       H  0.73422002  0.89728447  0.14459156     0.31900
H2575       H  0.77687704  0.55754625  0.19566655     0.31900
H2576       H  0.83133872  0.89442056  0.28357321     0.32200
C2577       C  0.64803981  0.70784223  0.24173294    -0.15300
C2578       C  0.62689647  0.73797437  0.23775390    -0.30400
H2579       H  0.63588611  0.68617307  0.25311410     0.13800
H2580       H  0.63845533  0.76074709  0.22825273     0.14300
C2581       C  0.68663766  0.70638100  0.18927098    -0.15300
C2582       C  0.71679650  0.70284013  0.16958457    -0.30400
H2583       H  0.66075616  0.71225410  0.17661578     0.13800
H2584       H  0.74295924  0.69799742  0.18185841     0.14300
C2585       C  0.70161789  0.66361192  0.23600457    -0.15300
C2586       C  0.68508228  0.63688595  0.22325639    -0.30400
H2587       H  0.72526794  0.65830327  0.25211431     0.13800
H2588       H  0.66115615  0.64289266  0.20761308     0.14300
C2589       C  0.66856166  0.57889850  0.04829120    -0.15300
C2590       C  0.68496986  0.55125879  0.03126210    -0.30400
H2591       H  0.64846801  0.57601812  0.06814900     0.13800
H2592       H  0.70413154  0.55653779  0.01111364     0.14300
C2593       C  0.69416981  0.50398240  0.07470707    -0.15300
C2594       C  0.67505744  0.51475477  0.10333051    -0.30400
H2595       H  0.71901056  0.48696674  0.07753549     0.13800
H2596       H  0.64940552  0.53035835  0.10077303     0.14300
C2597       C  0.64080186  0.50596521  0.03620804    -0.15300
C2598       C  0.61899024  0.51408408  0.00941363    -0.30400
H2599       H  0.62886683  0.49410515  0.05838032     0.13800
H2600       H  0.63795222  0.95397894  0.03569141     0.14300
C2601       C  0.47884992  0.70453147  0.09238645    -0.15300
C2602       C  0.00619127  0.69599902  0.10094623    -0.30400
H2603       H  0.45450397  0.72099908  0.09942190     0.13800
H2604       H  0.03423127  0.68642975  0.09621537     0.14300
C2605       C  0.52732449  0.70528777  0.04749460    -0.15300
C2606       C  0.54440814  0.70221642  0.01665075    -0.30400
H2607       H  0.54284039  0.71272888  0.06940441     0.13800
H2608       H  0.53030226  0.69582275  0.99361595     0.14300
C2609       C  0.99288192  0.62213536  0.04993891    -0.15300
C2610       C  0.97871512  0.65030425  0.03247083    -0.30400
H2611       H  0.01358745  0.62479193  0.06906397     0.13800
H2612       H  0.45613037  0.66217508  0.02597638     0.14300
C2613       C  0.98727248  0.57238887  0.22141087    -0.15300
C2614       C  0.97020963  0.54654242  0.23581933    -0.30400
H2615       H  0.01092292  0.56542748  0.20520437     0.13800
H2616       H  0.94697171  0.55274575  0.25271762     0.14300
C2617       C  0.52582682  0.50291608  0.24919211    -0.15300
C2618       C  0.54883686  0.97310498  0.24163096    -0.30400
H2619       H  0.54108210  0.02481657  0.25741305     0.13800
H2620       H  0.53438873  0.45147675  0.23103508     0.14300
C2621       C  0.95179876  0.50427425  0.17266386    -0.15300
C2622       C  0.98300920  0.50224503  0.19033661    -0.30400
H2623       H  0.93663305  0.01181003  0.18393349     0.13800
H2624       H  0.00835226  0.49600881  0.17637469     0.14300
C2625       C  0.70079633  0.97831781  0.00954563    -0.15300
C2626       C  0.73662270  0.97197409  0.00535706    -0.30400
H2627       H  0.71821801  0.50528339  0.99131802     0.13800
H2628       H  0.75363099  0.98662372  0.02121114     0.14300
C2629       C  0.75424315  0.87631956  0.47441302    -0.15300
C2630       C  0.73549078  0.90420398  0.48897304    -0.30400
H2631       H  0.77686683  0.87911428  0.45719549     0.13800
H2632       H  0.71366251  0.89924613  0.50652055     0.14300
C2633       C  0.78092036  0.94858278  0.48681870    -0.15300
C2634       C  0.81210267  0.94299699  0.01331657    -0.30400
H2635       H  0.80958582  0.95094631  0.96001388     0.13800
H2636       H  0.79759935  0.93898131  0.03721718     0.14300
C2637       C  0.72931437  0.95223014  0.44568309    -0.15300
C2638       C  0.74830520  0.94051358  0.41722710    -0.30400
H2639       H  0.70577071  0.97084510  0.44238898     0.13800
H2640       H  0.77232351  0.92260980  0.42020003     0.14300
C2641       C  0.95048876  0.74066246  0.01866926    -0.15300
C2642       C  0.97088624  0.71054662  0.01131033    -0.30400
H2643       H  0.97769694  0.70890070  0.48294639     0.13800
H2644       H  0.97424848  0.70230756  0.98463944     0.14300
C2645       C  0.94532337  0.75132490  0.43991901    -0.15300
C2646       C  0.92360551  0.76398993  0.41408531    -0.30400
H2647       H  0.97043738  0.73605260  0.43291390     0.13800
H2648       H  0.89793634  0.77885406  0.41957434     0.14300
C2649       C  0.89677078  0.74918369  0.48410485    -0.15300
C2650       C  0.87287441  0.73830270  0.00051839    -0.30400
H2651       H  0.87501861  0.79174762  0.00520669     0.13800
H2652       H  0.89029954  0.76316178  0.53680438     0.14300
C2653       C  0.92668611  0.82142245  0.47567981    -0.15300
C2654       C  0.94375558  0.79219654  0.48911412    -0.30400
H2655       H  0.91085322  0.82638293  0.95906605     0.13800
H2656       H  0.96519085  0.79452478  0.50757275     0.14300
C2657       C  0.71473731  0.72973017  0.27977643    -0.15300
C2658       C  0.71043828  0.72700667  0.24528411    -0.30400
H2659       H  0.70133595  0.71249182  0.29653445     0.13800
H2660       H  0.72374801  0.74448001  0.22871577     0.14300
C2661       C  0.77702512  0.74946559  0.28375989    -0.15300
C2662       C  0.79908702  0.72076909  0.29113892    -0.30400
H2663       H  0.78888152  0.77043579  0.27072479     0.13800
H2664       H  0.78822526  0.69836325  0.30233626     0.14300
C2665       C  0.73730154  0.75260842  0.33550419    -0.15300
C2666       C  0.70724785  0.75932493  0.35492065    -0.30400
H2667       H  0.76268861  0.74541587  0.34859843     0.13800
H2668       H  0.68139947  0.76567621  0.34242385     0.14300
C2669       C  0.72330860  0.79325888  0.28705607    -0.15300
C2670       C  0.74036814  0.82003239  0.29861813    -0.30400
H2671       H  0.69959106  0.79817798  0.27095136     0.13800
H2672       H  0.76444172  0.81433181  0.31413632     0.14300
C2673       C  0.96261186  0.97875994  0.28097333    -0.15300
C2674       C  0.96766333  0.98224310  0.24660533    -0.30400
H2675       H  0.97533717  0.99601461  0.29802698     0.13800
H2676       H  0.94785593  0.46521427  0.23185473     0.14300
C2677       C  0.93791418  0.88751025  0.29976515    -0.15300
C2678       C  0.95456433  0.91452468  0.28756525    -0.30400
H2679       H  0.91449703  0.89303902  0.31664198     0.13800
H2680       H  0.97783507  0.90987787  0.27041604     0.14300
C2681       C  0.93996573  0.95482525  0.33642438    -0.15300
C2682       C  0.97035424  0.94884055  0.35504620    -0.30400
H2683       H  0.91439485  0.96086661  0.35005659     0.13800
H2684       H  0.99623808  0.94385012  0.34177843     0.14300
C2685       C  0.90050696  0.95751614  0.28484102    -0.15300
C2686       C  0.87816227  0.98648917  0.29059803    -0.30400
H2687       H  0.88897856  0.93594237  0.27274291     0.13800
H2688       H  0.88872915  0.00950763  0.30054814     0.14300
C2689       C  0.94446609  0.94609910  0.79680951    -0.01300
C2690       C  0.73301927  0.75325736  0.79550655    -0.01300
C2691       C  0.93069198  0.76515265  0.99223076    -0.01300
C2692       C  0.75393604  0.94457991  0.98033400    -0.01300
C2693       C  0.97709425  0.50575950  0.73258094    -0.01300
C2694       C  0.49283613  0.68976593  0.54340286    -0.01300
C2695       C  0.67286821  0.51057141  0.53858563    -0.01300
C2696       C  0.68426460  0.69473866  0.72887812    -0.01300
Zr2697     Zr  0.92968895  0.95145026  0.96792151     2.17500
O2698       O  0.88734689  0.95674695  0.92003070    -0.50200
O2699       O  0.92906817  0.88868526  0.96693500    -0.73400
O2700       O  0.94926578  0.94879607  0.90810636    -0.80100
O2701       O  0.85255350  0.95593783  0.54628415    -0.81900
O2702       O  0.00746270  0.96191173  0.90499124    -0.77500
O2703       O  0.86823364  0.94815884  0.98673652    -0.89100
O2704       O  0.96053560  0.85862108  0.50775569    -0.75100
O2705       O  0.99184756  0.93132750  0.97348410    -0.84600
O2706       O  0.92779847  0.92467539  0.52790712    -0.84300
O2707       O  0.96132580  0.00093817  0.95578230    -0.71000
O2708       O  0.90164927  0.99330371  0.50679391    -0.83200
Zr2709     Zr  0.00555873  0.00313480  0.55827271     2.26400
Zr2710     Zr  0.51434947  0.96722437  0.97548478     2.06300
Zr2711     Zr  0.91081277  0.97308462  0.56463093     2.10000
Zr2712     Zr  0.99005942  0.90497839  0.53336792     1.78800
O2713       O  0.86281776  0.51704195  0.58575873    -0.92000
O2714       O  0.53611346  0.86958691  0.51713809    -0.39800
O2715       O  0.97363926  0.95356551  0.57054271    -0.76400
O2716       O  0.52688949  0.95363815  0.52776230    -0.95100
O2717       O  0.99786216  0.52854253  0.50083738    -0.88400
O2718       O  0.94237812  0.52773594  0.55278140    -0.91300
C2719       C  0.94311624  0.86328793  0.98514534     1.02500
C2720       C  0.83910955  0.94888697  0.51700070     1.15400
C2721       C  0.97835956  0.95313916  0.89129654     1.06200
O2722       O  0.55474521  0.91657127  0.95910540    -0.93400
O2723       O  0.57381014  0.97518058  0.99690311    -0.89200
O2724       O  0.55466615  0.49687129  0.55850275    -0.82300
C2725       C  0.59321026  0.99588143  0.51189088     1.12800
O2726       O  0.87570841  0.55505844  0.95908400    -0.95400
Zr2727     Zr  0.93524022  0.54641481  0.49470196     1.88900
O2728       O  0.00168080  0.57257449  0.56043495    -0.72000
O2729       O  0.51399728  0.52887823  0.92847199    -0.51300
O2730       O  0.93749206  0.57745409  0.95052684    -0.96000
O2731       O  0.88558273  0.58138255  0.52367979    -0.53200
O2732       O  0.96382873  0.59482864  0.51869563    -0.72600
C2733       C  0.98656002  0.59796405  0.54296363     0.99800
O2734       O  0.55687523  0.99298281  0.60783841    -0.61400
O2735       O  0.89619242  0.92806719  0.60457789    -0.56200
O2736       O  0.98379803  0.50847219  0.61940698    -0.92900
O2737       O  0.92849864  0.99021317  0.62198712    -0.91300
O2738       O  0.97140182  0.87186594  0.58258826    -0.91600
O2739       O  0.53314561  0.88745048  0.58191694    -0.90400
C2740       C  0.95400953  0.50377657  0.63523134     1.18600
H2741       H  0.91262125  0.90653915  0.53292514     0.34600
H2742       H  0.55145715  0.94390456  0.53157597     0.45400
H2743       H  0.93438986  0.54603488  0.56879636     0.39000
H2744       H  0.95692817  0.00874191  0.93240807     0.35400
H2745       H  0.52409178  0.85437339  0.50142936     0.27200
H2746       H  0.52634177  0.54622986  0.94129432     0.33600
H2747       H  0.94398470  0.56246868  0.93030960     0.39100
H2748       H  0.97404241  0.84749719  0.57476633     0.33500
H2749       H  0.91885206  0.92152436  0.61723007     0.32400
H2750       H  0.86096827  0.53650546  0.56924710     0.34100
H2751       H  0.86463542  0.58212541  0.50806429     0.33100
H2752       H  0.53544734  0.90686018  0.59801104     0.37100
H2753       H  0.56988375  0.97026032  0.60181780     0.29800
H2754       H  0.86904408  0.97611161  0.92618120     0.34000
H2755       H  0.86497747  0.53331991  0.95417647     0.36900
H2756       H  0.87972651  0.94016631  0.62190213     0.29500
H2757       H  0.57499939  0.00975633  0.60498450     0.42400
H2758       H  0.57137916  0.92512899  0.94174597     0.32400
H2759       H  0.55648465  0.87819921  0.02654510     0.40000
H2760       H  0.89259685  0.60526024  0.52347744     0.31900
H2761       H  0.00632498  0.53165311  0.92328942     0.31900
H2762       H  0.87428130  0.93580270  0.92094553     0.32200
Zr2763     Zr  0.90797275  0.76508788  0.80589678     2.17500
O2764       O  0.85825323  0.81059476  0.81345004    -0.50200
O2765       O  0.90553969  0.76252927  0.86889826    -0.73400
O2766       O  0.84771707  0.74462784  0.80224093    -0.80100
O2767       O  0.97486957  0.83416970  0.78675828    -0.81900
O2768       O  0.85234787  0.68740959  0.78875012    -0.77500
O2769       O  0.91861461  0.82636031  0.80694939    -0.89100
O2770       O  0.95365677  0.72746380  0.88814409    -0.75100
O2771       O  0.92370145  0.70655893  0.82287004    -0.84600
O2772       O  0.96984504  0.76134117  0.82252444    -0.84300
O2773       O  0.89860251  0.73128898  0.75523141    -0.71000
O2774       O  0.94131226  0.78236178  0.75642753    -0.83200
Zr2775     Zr  0.50800084  0.68754268  0.73054309     2.26400
Zr2776     Zr  0.91550230  0.67249630  0.77233958     2.06300
Zr2777     Zr  0.50369998  0.78213399  0.76040526     2.10000
Zr2778     Zr  0.98584706  0.70274815  0.83842506     1.78800
O2779       O  0.51482228  0.82139724  0.71347116    -0.92000
O2780       O  0.97048184  0.65097045  0.86847097    -0.39800
O2781       O  0.52086742  0.72361814  0.77812150    -0.76400
O2782       O  0.97794431  0.66707033  0.78922194    -0.95100
O2783       O  0.94873991  0.68860158  0.72267098    -0.88400
O2784       O  0.99519767  0.74330107  0.72261052    -0.91300
C2785       C  0.92522743  0.74833352  0.89305637     1.02500
C2786       C  0.94381653  0.84550069  0.79908857     1.15400
C2787       C  0.83389810  0.71614705  0.79633349     1.06200
O2788       O  0.90166057  0.63029464  0.81564713    -0.93400
O2789       O  0.94226955  0.61632338  0.75196014    -0.89200
O2790       O  0.99839626  0.62494832  0.73212713    -0.82300
C2791       C  0.97298560  0.60578036  0.73825812     1.12800
O2792       O  0.88393209  0.79200710  0.69621089    -0.95400
Zr2793     Zr  0.93313508  0.74724788  0.70704147     1.88900
O2794       O  0.51015715  0.68831228  0.66799126    -0.72000
O2795       O  0.87755340  0.65124787  0.72780012    -0.51300
O2796       O  0.88466581  0.72341710  0.67598651    -0.96000
O2797       O  0.95052251  0.79181378  0.66779181    -0.53200
O2798       O  0.96113000  0.71786471  0.65803220    -0.72600
C2799       C  0.98993537  0.69784004  0.65241632     0.99800
O2800       O  0.55577795  0.64012840  0.72338216    -0.61400
O2801       O  0.54677441  0.80577344  0.79865742    -0.56200
O2802       O  0.56888823  0.70553389  0.73495378    -0.92900
O2803       O  0.56629231  0.76353217  0.74372126    -0.91300
O2804       O  0.53316319  0.73962282  0.85904492    -0.91600
O2805       O  0.54042986  0.66703566  0.83743229    -0.90400
C2806       C  0.58377064  0.73382194  0.73795610     1.18600
H2807       H  0.97305827  0.77674501  0.84155312     0.34600
H2808       H  0.98599477  0.64355300  0.79545498     0.45400
H2809       H  0.50817648  0.75136339  0.69266869     0.39000
H2810       H  0.87409011  0.73434070  0.74700100     0.35400
H2811       H  0.99247152  0.63437453  0.86752132     0.27200
H2812       H  0.86137579  0.63662775  0.74020119     0.33200
H2813       H  0.89438022  0.69950403  0.66996317     0.39100
H2814       H  0.54842081  0.72163873  0.87174199     0.33500
H2815       H  0.53207162  0.81756753  0.81742087     0.32400
H2816       H  0.49281803  0.83797301  0.71262274     0.34100
H2817       H  0.93862431  0.78718519  0.64575367     0.33100
H2818       H  0.55220126  0.66415669  0.81444311     0.37100
H2819       H  0.57150767  0.64700493  0.70435967     0.29800
H2820       H  0.84304983  0.80298376  0.83254320     0.34000
H2821       H  0.87532972  0.79983963  0.71944586     0.36900
H2822       H  0.55966778  0.78534714  0.80994844     0.29500
H2823       H  0.57072476  0.64018814  0.74438470     0.42400
H2824       H  0.89365680  0.61074067  0.80236643     0.32400
H2825       H  0.96801958  0.65779710  0.89305824     0.40000
H2826       H  0.97658985  0.78584279  0.66296752     0.31900
H2827       H  0.86151760  0.67175094  0.72046829     0.31900
H2828       H  0.84325421  0.80993513  0.79252877     0.32200
Zr2829     Zr  0.74994094  0.75780715  0.96527471     2.17500
O2830       O  0.79718486  0.75792180  0.92104775    -0.50200
O2831       O  0.75288299  0.81992617  0.96519212    -0.73400
O2832       O  0.72703067  0.76020352  0.90641593    -0.80100
O2833       O  0.82580490  0.73941493  0.54388453    -0.81900
O2834       O  0.66779652  0.75043371  0.90510329    -0.77500
O2835       O  0.81401153  0.75102472  0.97931557    -0.89100
O2836       O  0.72021152  0.83841374  0.50568337    -0.75100
O2837       O  0.68883863  0.78127020  0.97417538    -0.84600
O2838       O  0.75259746  0.77133665  0.52725346    -0.84300
O2839       O  0.71402461  0.71126361  0.95274150    -0.71000
O2840       O  0.77529492  0.70290496  0.50353410    -0.83200
Zr2841     Zr  0.67023498  0.69768372  0.55646450     2.26400
Zr2842     Zr  0.65269646  0.73440121  0.96378556     2.06300
Zr2843     Zr  0.76752584  0.72153508  0.56220758     2.10000
Zr2844     Zr  0.69140304  0.79360973  0.53502163     1.78800
O2845       O  0.81381310  0.67606572  0.57919581    -0.92000
O2846       O  0.64156208  0.83508322  0.51714049    -0.39800
O2847       O  0.70573811  0.74394456  0.57024590    -0.76400
O2848       O  0.65401197  0.74852422  0.52264632    -0.95100
O2849       O  0.67740107  0.67883875  0.49825506    -0.88400
O2850       O  0.73209160  0.67490026  0.55000637    -0.91300
C2851       C  0.73947367  0.84615777  0.98272899     1.02500
C2852       C  0.83899917  0.74877500  0.51501998     1.15400
C2853       C  0.69743917  0.75690233  0.89040580     1.06200
O2854       O  0.60600339  0.77987836  0.94780282    -0.93400
O2855       O  0.59497453  0.71697200  0.98416876    -0.89200
O2856       O  0.60762242  0.69740595  0.53723150    -0.82300
C2857       C  0.58981535  0.70200098  0.50899049     1.12800
O2858       O  0.77121564  0.64581139  0.93940342    -0.95400
Zr2859     Zr  0.73921384  0.65693027  0.49142786     1.88900
O2860       O  0.66929124  0.63520023  0.55761757    -0.72000
O2861       O  0.63280363  0.69057364  0.92541721    -0.51300
O2862       O  0.70413296  0.62942117  0.94132992    -0.96000
O2863       O  0.78862047  0.61758606  0.51403671    -0.53200
O2864       O  0.70863524  0.61115715  0.51711136    -0.72600
C2865       C  0.68460289  0.60923170  0.54076271     0.99800
O2866       O  0.62621497  0.70410435  0.60375330    -0.61400
O2867       O  0.78515593  0.76394058  0.60338547    -0.56200
O2868       O  0.68868857  0.69584366  0.61654923    -0.92900
O2869       O  0.74817221  0.70467048  0.61950952    -0.91300
O2870       O  0.71930260  0.82458496  0.58060962    -0.91600
O2871       O  0.64968364  0.80978413  0.58248544    -0.90400
C2872       C  0.71799546  0.69828811  0.63329809     1.18600
H2873       H  0.76851793  0.78877843  0.53233434     0.34600
H2874       H  0.62914547  0.75730646  0.52692333     0.45400
H2875       H  0.73792891  0.65589404  0.56567505     0.39000
H2876       H  0.71712582  0.70339188  0.92918455     0.35400
H2877       H  0.64457813  0.83696640  0.49183190     0.27200
H2878       H  0.61457052  0.70322679  0.91042932     0.33200
H2879       H  0.67837369  0.62900376  0.94785122     0.39100
H2880       H  0.71551912  0.84923556  0.57392095     0.33500
H2881       H  0.76262630  0.77198846  0.61606702     0.32400
H2882       H  0.83154894  0.68809471  0.59229467     0.34100
H2883       H  0.77983959  0.59440873  0.51331423     0.33100
H2884       H  0.63911205  0.78818414  0.58851701     0.37100
H2885       H  0.60946128  0.72468975  0.59802224     0.29800
H2886       H  0.79079380  0.77867197  0.90671397     0.34000
H2887       H  0.77873138  0.66802581  0.93091465     0.36900
H2888       H  0.80018880  0.75032531  0.62048793     0.29500
H2889       H  0.61162364  0.68426700  0.60188729     0.42400
H2890       H  0.59390080  0.78727278  0.96983368     0.32400
H2891       H  0.64083581  0.83725931  0.98389563     0.40000
H2892       H  0.78977853  0.62307836  0.53889636     0.31900
H2893       H  0.65369707  0.68395520  0.90993833     0.31900
H2894       H  0.79425213  0.73798506  0.90580297     0.32200
Zr2895     Zr  0.76845143  0.93422959  0.79161808     2.17500
O2896       O  0.81700223  0.88712341  0.79438473    -0.50200
O2897       O  0.76816667  0.93507381  0.85468364    -0.73400
O2898       O  0.82889209  0.95406284  0.79292999    -0.80100
O2899       O  0.70198011  0.86517175  0.77095592    -0.81900
O2900       O  0.82538755  0.01155971  0.78098683    -0.77500
O2901       O  0.75589130  0.87371255  0.79503081    -0.89100
O2902       O  0.72013019  0.97021415  0.87493358    -0.75100
O2903       O  0.75268908  0.99219918  0.81046961    -0.84600
O2904       O  0.70611202  0.93776074  0.80717253    -0.84300
O2905       O  0.78023603  0.96977206  0.74252945    -0.71000
O2906       O  0.73765327  0.91841961  0.74065175    -0.83200
Zr2907     Zr  0.64717273  0.51388668  0.72782123     2.26400
Zr2908     Zr  0.74161169  0.52211438  0.76192190     2.06300
Zr2909     Zr  0.67493673  0.92317467  0.75621706     2.10000
Zr2910     Zr  0.69001185  0.99589471  0.82502363     1.78800
O2911       O  0.66014040  0.88705373  0.70811121    -0.92000
O2912       O  0.68645504  0.54049324  0.86257050    -0.39800
O2913       O  0.65810837  0.98157141  0.77467038    -0.76400
O2914       O  0.67902408  0.52897401  0.77885629    -0.95100
O2915       O  0.70935971  0.50734564  0.71157952    -0.88400
O2916       O  0.68487348  0.95929951  0.70743127    -0.91300
C2917       C  0.74833703  0.94902745  0.87928741     1.02500
C2918       C  0.73152510  0.85424791  0.78610802     1.15400
C2919       C  0.84314265  0.98265662  0.78900139     1.06200
O2920       O  0.75722444  0.56114464  0.80729678    -0.93400
O2921       O  0.71659793  0.58095891  0.74643642    -0.89200
O2922       O  0.66070337  0.57441945  0.72579273    -0.82300
C2923       C  0.68626580  0.59305869  0.73334562     1.12800
O2924       O  0.79690670  0.91000248  0.68306634    -0.95400
Zr2925     Zr  0.74753545  0.95521629  0.69267335     1.88900
O2926       O  0.64998503  0.51323882  0.66414442    -0.72000
O2927       O  0.78107544  0.54279689  0.71764561    -0.51300
O2928       O  0.79724480  0.97401029  0.65848300    -0.96000
O2929       O  0.72893193  0.90983013  0.65544281    -0.53200
O2930       O  0.72203408  0.98623763  0.64317085    -0.72600
C2931       C  0.67026650  0.49928353  0.63968431     0.99800
O2932       O  0.59336416  0.55361365  0.71706039    -0.61400
O2933       O  0.63610029  0.89630965  0.79715094    -0.56200
O2934       O  0.58531900  0.49816922  0.73704825    -0.92900
O2935       O  0.61179489  0.94089694  0.74477491    -0.91300
O2936       O  0.64519626  0.96918139  0.85932316    -0.91600
O2937       O  0.61600939  0.53393965  0.83754826    -0.90400
C2938       C  0.59413178  0.97018917  0.73853109     1.18600
H2939       H  0.70210727  0.92187749  0.82563537     0.34600
H2940       H  0.67156368  0.55240410  0.78599440     0.45400
H2941       H  0.67017515  0.95380254  0.68817627     0.39000
H2942       H  0.80534246  0.96683752  0.73558794     0.35400
H2943       H  0.67734534  0.56178259  0.85013236     0.27200
H2944       H  0.76460927  0.55357813  0.69989921     0.33200
H2945       H  0.80886156  0.98997053  0.67366792     0.39100
H2946       H  0.62451592  0.96778403  0.84367963     0.33500
H2947       H  0.65224523  0.88635103  0.81553012     0.32400
H2948       H  0.64068208  0.87386928  0.71716986     0.34100
H2949       H  0.70664325  0.91995180  0.64401229     0.33100
H2950       H  0.60357101  0.53576537  0.81504995     0.37100
H2951       H  0.59232309  0.57088449  0.73591782     0.29800
H2952       H  0.83162655  0.89189901  0.81472929     0.34000
H2953       H  0.81278523  0.91119472  0.70329473     0.36900
H2954       H  0.62144941  0.91582291  0.80853459     0.29500
H2955       H  0.59881935  0.56649209  0.69593741     0.42400
H2956       H  0.76803725  0.58000136  0.79507905     0.32400
H2957       H  0.67106490  0.54044099  0.88356922     0.40000
H2958       H  0.72074299  0.89235130  0.67145458     0.31900
H2959       H  0.79167431  0.56241684  0.72854638     0.31900
H2960       H  0.83284467  0.89009202  0.77414558     0.32200
C2961       C  0.64470177  0.70229134  0.74063935    -0.15300
C2962       C  0.62369059  0.73181959  0.73378538    -0.30400
H2963       H  0.63191002  0.68160939  0.75318689     0.13800
H2964       H  0.63567441  0.75382445  0.72301974     0.14300
C2965       C  0.68593490  0.69827407  0.68957554    -0.15300
C2966       C  0.71708490  0.69393037  0.67123309    -0.30400
H2967       H  0.66081009  0.70458797  0.67577190     0.13800
H2968       H  0.74255918  0.68865310  0.68464957     0.14300
C2969       C  0.69701189  0.65676693  0.73795710    -0.15300
C2970       C  0.67887600  0.63068063  0.72573699    -0.30400
H2971       H  0.72016489  0.65090804  0.75457532     0.13800
H2972       H  0.65546111  0.63763132  0.70966419     0.14300
C2973       C  0.67310846  0.57493675  0.54910837    -0.15300
C2974       C  0.68606909  0.54597921  0.53206623    -0.30400
H2975       H  0.65230201  0.57391033  0.56869411     0.13800
H2976       H  0.70610060  0.54814931  0.51177599     0.14300
C2977       C  0.68157727  0.49851547  0.57569143    -0.15300
C2978       C  0.66201273  0.51060602  0.60375217    -0.30400
H2979       H  0.70380196  0.47850985  0.57933549     0.13800
H2980       H  0.63863798  0.52928090  0.60037893     0.14300
C2981       C  0.63233686  0.51302043  0.53270046    -0.15300
C2982       C  0.61367013  0.48569102  0.53698545    -0.30400
H2983       H  0.61791694  0.53752693  0.52504606     0.13800
H2984       H  0.64826508  0.98608134  0.48945887     0.14300
C2985       C  0.47999845  0.69855952  0.58047390    -0.15300
C2986       C  0.99902519  0.68918286  0.61612886    -0.30400
H2987       H  0.45359097  0.71285548  0.58436760     0.13800
H2988       H  0.02478428  0.67436174  0.61085961     0.14300
C2989       C  0.53104537  0.70059848  0.53839018    -0.15300
C2990       C  0.55107246  0.69570719  0.50938844    -0.30400
H2991       H  0.54364079  0.71214796  0.56013446     0.13800
H2992       H  0.53915168  0.68644097  0.48612573     0.14300
C2993       C  0.99661334  0.63280749  0.55211330    -0.15300
C2994       C  0.98027073  0.66249465  0.53916277    -0.30400
H2995       H  0.01777472  0.63389493  0.57094917     0.13800
H2996       H  0.48895863  0.64423767  0.50876679     0.14300
C2997       C  0.98118099  0.56915356  0.72899510    -0.15300
C2998       C  0.96282353  0.54319210  0.74059396    -0.30400
H2999       H  0.00552943  0.56274965  0.71354998     0.13800
H3000       H  0.93864830  0.54884341  0.75640016     0.14300
C3001       C  0.50896649  0.50110618  0.75064776    -0.15300
C3002       C  0.55417570  0.97134506  0.73741594    -0.30400
H3003       H  0.54525530  0.02037090  0.75966412     0.13800
H3004       H  0.51754933  0.45005772  0.73174728     0.14300
C3005       C  0.95131817  0.50779531  0.67293002    -0.15300
C3006       C  0.97999601  0.50170988  0.69342516    -0.30400
H3007       H  0.93197991  0.01141756  0.68584830     0.13800
H3008       H  0.00629856  0.49457665  0.68147985     0.14300
C3009       C  0.71337205  0.99799609  0.51070789    -0.15300
C3010       C  0.71706657  0.96335027  0.50927403    -0.30400
H3011       H  0.67411490  0.47065206  0.49545999     0.13800
H3012       H  0.70202095  0.95021804  0.52853725     0.14300
C3013       C  0.75288807  0.87966349  0.97395615    -0.15300
C3014       C  0.74207367  0.90936723  0.99059982    -0.30400
H3015       H  0.77269184  0.87946662  0.95333728     0.13800
H3016       H  0.72323892  0.90838257  0.01213103     0.14300
C3017       C  0.79456318  0.94504054  0.98307994    -0.15300
C3018       C  0.80000044  0.94366315  0.51608422    -0.30400
H3019       H  0.79487625  0.95803387  0.46451892     0.13800
H3020       H  0.78663556  0.93627335  0.53958104     0.14300
C3021       C  0.74218281  0.95396946  0.94331648    -0.15300
C3022       C  0.75899846  0.93950012  0.91490086    -0.30400
H3023       H  0.72021395  0.97425350  0.93973596     0.13800
H3024       H  0.78236501  0.92070955  0.91753902     0.14300
C3025       C  0.96138359  0.72848807  0.49776592    -0.15300
C3026       C  0.96402903  0.72668528  0.53239823    -0.30400
H3027       H  0.94720982  0.74892593  0.04534444     0.13800
H3028       H  0.94821209  0.74644486  0.54736770     0.14300
C3029       C  0.93904194  0.75425424  0.95478742    -0.15300
C3030       C  0.91459166  0.75687084  0.92904283    -0.30400
H3031       H  0.96733354  0.74777622  0.94794068     0.13800
H3032       H  0.88681171  0.76725435  0.93391920     0.14300
C3033       C  0.89033364  0.76686391  0.00028427    -0.15300
C3034       C  0.87776854  0.75447446  0.51370853    -0.30400
H3035       H  0.88263886  0.73939037  0.46233307     0.13800
H3036       H  0.88772676  0.71304424  0.99684256     0.14300
C3037       C  0.93108663  0.82875719  0.97871327    -0.15300
C3038       C  0.94363856  0.80072356  0.99722059    -0.30400
H3039       H  0.90486619  0.81999362  0.45764296     0.13800
H3040       H  0.96389431  0.80359262  0.01679152     0.14300
C3041       C  0.71017192  0.72635514  0.77960879    -0.15300
C3042       C  0.70778096  0.72084052  0.74529776    -0.30400
H3043       H  0.69526436  0.71073800  0.79679507     0.13800
H3044       H  0.72250994  0.73680564  0.72830408     0.14300
C3045       C  0.77309856  0.74491045  0.78598885    -0.15300
C3046       C  0.79400473  0.71700186  0.79758453    -0.30400
H3047       H  0.78651848  0.76438278  0.77209657     0.13800
H3048       H  0.78180875  0.69590917  0.80992651     0.14300
C3049       C  0.72963056  0.75237984  0.83477783    -0.15300
C3050       C  0.69820309  0.75888629  0.85230509    -0.30400
H3051       H  0.75421676  0.74662716  0.84954295     0.13800
H3052       H  0.67295183  0.76360464  0.83842573     0.14300
C3053       C  0.72106008  0.79055750  0.78382016    -0.15300
C3054       C  0.73899427  0.81709278  0.79517183    -0.30400
H3055       H  0.69849340  0.79560448  0.76634042     0.13800
H3056       H  0.76172851  0.81098331  0.81230315     0.14300
C3057       C  0.97092395  0.96738025  0.77699628    -0.15300
C3058       C  0.96242068  0.99002514  0.75091904    -0.30400
H3059       H  0.99889643  0.96281945  0.78463089     0.13800
H3060       H  0.94150513  0.46177331  0.73028652     0.14300
C3061       C  0.93598742  0.88311128  0.80500720    -0.15300
C3062       C  0.95543541  0.90741298  0.79100670    -0.30400
H3063       H  0.91223614  0.89141362  0.82061030     0.13800
H3064       H  0.97871846  0.89937474  0.77468283     0.14300
C3065       C  0.94698279  0.95303830  0.83550991    -0.15300
C3066       C  0.97803838  0.94807665  0.85349099    -0.30400
H3067       H  0.92220660  0.96142739  0.84958761     0.13800
H3068       H  0.00351412  0.94068571  0.84027118     0.14300
C3069       C  0.90486103  0.95331295  0.78549055    -0.15300
C3070       C  0.88279939  0.98191973  0.79361900    -0.30400
H3071       H  0.89262557  0.93252096  0.77271571     0.13800
H3072       H  0.89375561  0.00417470  0.80483524     0.14300
loop_ 
_geom_bond_atom_site_label_1 
_geom_bond_atom_site_label_2 
_geom_bond_distance 
_geom_bond_site_symmetry_2 
_ccdc_geom_bond_type 
C1          C369   1.543       .  S
C1          C374   1.545       .  S
C1          C377   1.541       .  S
C1          C381   1.544       .  S
C2          C353   1.539       .  S
C2          C357   1.544       .  S
C2          C361   1.536       .  S
C2          C365   1.547       .  S
C3          C341   1.525       .  S
C3          C345   1.532       .  S
C3          C350   1.520       .  S
C3          C721   1.545       .  S
C4          C326   1.526       .  S
C4          C329   1.524       .  S
C4          C333   1.535       .  S
C4          C706   1.545       .  S
C5          C310   1.537       .  S
C5          C318   1.520       .  S
C5         C1849   1.534       .  S
C5         C1138   1.530   1_545  S
C6          C297   1.525       .  S
C6          C301   1.532       .  S
C6         C1842   1.534   1_455  S
C6         C1874   1.539   1_455  S
C7          C286   1.522       .  S
C7          C289   1.540       .  S
C7          C293   1.525       .  S
C7         C1089   1.530   1_545  S
C8          C273   1.544       .  S
C8          C277   1.522       .  S
C8          C281   1.539       .  S
C8          C354   1.536       .  S
Zr9          O10   2.440       .  S
Zr9          O11   2.443       .  S
Zr9          O12   2.473       .  S
Zr9          O15   2.439       .  S
Zr9          O17   2.385       .  S
Zr9          O19   2.405       .  S
Zr9         O402   2.390       .  S
Zr9         O404   2.411       .  S
O10          H66   0.990       .  S
O10          H74   0.990       .  S
O11          C31   1.285       .  A
O12          C33   1.292       .  A
O13         Zr23   2.464       .  S
O13          C32   1.289       .  A
O14       Zr1558   2.436       .  S
O14          C33   1.284       .  A
O15         C416   1.288       .  A
O16         Zr24   2.383       .  S
O16         C415   1.276   1_554  A
O17       Zr1558   2.396       .  S
O17        Zr408   2.388       .  S
O18         Zr23   2.390       .  S
O18         Zr24   2.378       .  S
O18        Zr393   2.379   1_554  S
O18          H53   0.966       .  S
O19       Zr1558   2.396       .  S
O19       Zr1191   2.385       .  S
O19          H56   0.965       .  S
O20         Zr23   2.387       .  S
O20        Zr393   2.408   1_554  S
O20        Zr807   2.399       .  S
Zr21       O1582   2.442       .  S
Zr21        O808   2.432       .  S
Zr21        O816   2.459       .  S
Zr21       O2340   2.473       .  S
Zr21         O27   2.402       .  S
Zr21       O1564   2.400       .  S
Zr21        O797   2.381       .  S
Zr21        O798   2.394       .  S
Zr22         O34   2.437       .  S
Zr22        O809   2.441       .  S
Zr22         O35   2.429       .  S
Zr22       O1550   2.440       .  S
Zr22       O1553   2.401   1_455  S
Zr22       O1555   2.395   1_455  S
Zr22        O412   2.407       .  S
Zr22       O2717   2.398   1_455  S
Zr23         O47   2.438       .  S
Zr23        O793   2.435       .  S
Zr23         O49   2.429       .  S
Zr23         O27   2.401       .  S
Zr23        O798   2.402       .  S
Zr24         O50   2.435       .  S
Zr24       O1587   2.435       .  S
Zr24       O1562   2.437       .  S
Zr24         O27   2.380       .  S
Zr24        O401   2.382   1_554  S
Zr24       O1564   2.383       .  S
O25        Zr791   2.437   1_545  S
O25          H62   0.990       .  S
O26       Zr1560   2.437   1_455  S
O26          H57   0.990       .  S
O26         H455   0.990   1_554  S
O28       Zr1557   2.395   1_455  S
O28        Zr406   2.393   1_554  S
O28       Zr1560   2.386   1_455  S
O28          H54   0.966       .  S
O29         Zr39   2.378       .  S
O29        Zr789   2.376   1_545  S
O29       Zr2710   2.399   1_544  S
O30         Zr39   2.375       .  S
O30        Zr789   2.382   1_545  S
O30        Zr791   2.397   1_545  S
O30          H55   0.966       .  S
C31         O400   1.278       .  A
C31         C349   1.476       .  S
C32         O399   1.284   1_554  A
C32         C330   1.492       .  S
C33         C378   1.492       .  S
O34          H70   0.990       .  S
O35         C421   1.280       .  A
O36       Zr2325   2.430       .  S
O36         C805   1.285       .  A
C37         O419   1.285   1_554  A
C37         O804   1.286       .  A
C37        C1062   1.482       .  S
O38        Zr423   2.438       .  S
O38          H67   0.990       .  S
Zr39         O43   2.437       .  S
Zr39        O422   2.434   1_554  S
Zr39        O426   2.437   1_554  S
Zr39         O44   2.402       .  S
Zr39       O1171   2.379   1_544  S
Zr39        O788   2.391   1_545  S
O40        Zr789   2.440   1_545  S
O40          C45   1.283       .  A
O41        Zr790   2.436   1_545  S
O41          H58   0.990       .  S
O41        H1609   0.990       .  S
O42        Zr423   2.436       .  S
O42          H59   0.990       .  S
O43          H63   0.990       .  S
O43          H72   0.989       .  S
O44          C45   1.279       .  A
C45         C305   1.481       .  S
O46       Zr1557   2.442   1_455  S
O46          H65   0.991       .  S
O46          H69   0.990       .  S
O47          H61   0.990       .  S
O47          H68   0.990       .  S
O48        Zr789   2.404   1_545  S
O48          C52   1.280       .  A
O49         C820   1.284       .  A
O50          H60   0.990       .  S
O51       Zr1560   2.437   1_455  S
O51          H64   0.990       .  S
C52         O817   1.283   1_545  A
C52         C317   1.470       .  S
H71         O410   0.990       .  S
H73        O1577   0.990       .  S
Zr75         O76   2.443       .  S
Zr75         O77   2.457       .  S
Zr75         O78   2.442       .  S
Zr75         O81   2.408       .  S
Zr75         O83   2.376       .  S
Zr75         O84   2.380       .  S
Zr75         O85   2.408       .  S
Zr75         O86   2.409       .  S
O76         H132   0.990       .  S
O76         H140   0.990       .  S
O77          C97   1.287       .  A
O78          C99   1.285       .  A
O79       Zr1625   2.485       .  S
O79          C98   1.293       .  A
O80         Zr88   2.464       .  S
O80          C99   1.289       .  A
O81          C98   1.279       .  A
O82         Zr90   2.383       .  S
O82          C97   1.275       .  A
O83         Zr88   2.400       .  S
O83         Zr90   2.386       .  S
O84         Zr90   2.379       .  S
O84       Zr1625   2.395       .  S
O84         H119   0.965       .  S
O85         Zr88   2.402       .  S
O85        Zr105   2.401       .  S
O85         H122   0.965       .  S
O86        Zr105   2.401       .  S
O86       Zr1625   2.396       .  S
Zr87        O112   2.442       .  S
Zr87        O106   2.469       .  S
Zr87        O114   2.470       .  S
Zr87       O1638   2.473       .  S
Zr87         O93   2.401       .  S
Zr87       O1630   2.414   1_455  S
Zr87       O1631   2.383   1_455  S
Zr87       O1632   2.398   1_455  S
Zr88        O107   2.435       .  S
Zr88        O100   2.435       .  S
Zr88        O101   2.450       .  S
Zr88         O94   2.412       .  S
Zr88         O95   2.402       .  S
Zr89         O91   2.436       .  S
Zr89        O113   2.439       .  S
Zr89        O115   2.455       .  S
Zr89       O1615   2.466   1_455  S
Zr89         O93   2.390       .  S
Zr89       O1620   2.399   1_455  S
Zr89       O1622   2.393   1_455  S
Zr89       O1632   2.405   1_455  S
Zr90         O92   2.440       .  S
Zr90       O1652   2.436       .  S
Zr90       O1653   2.436       .  S
Zr90         O94   2.378       .  S
Zr90       O1629   2.380       .  S
O91         H128   0.990       .  S
O92         H123   0.990       .  S
O92         H137   0.990       .  S
O93       Zr1626   2.378   1_455  S
O94       Zr1623   2.401       .  S
O94         H120   0.964       .  S
O95        Zr105   2.382       .  S
O95       Zr1623   2.377       .  S
O96        Zr105   2.376       .  S
O96       Zr1623   2.390       .  S
O96       Zr1625   2.411       .  S
O96        H1657   0.967       .  S
C97         C342   1.474       .  S
C98         C373   1.488       .  S
C99         C358   1.491       .  S
O100        H136   0.990       .  S
O101        C103   1.287       .  A
O102      Zr1623   2.446       .  S
O102        C103   1.286       .  A
C103        C309   1.480       .  S
O104       Zr105   2.435       .  S
O104        H133   0.990       .  S
Zr105       O108   2.435       .  S
Zr105       O109   2.438       .  S
Zr105       O110   2.428       .  S
O106       C1647   1.289   1_455  A
O107        H124   0.990       .  S
O107        H139   0.990       .  S
O108        H125   0.990       .  S
O109        H129   0.990       .  S
O109        H138   0.990       .  S
O110        C111   1.281       .  A
C111       O1642   1.281       .  A
C111        C298   1.476       .  S
O112        H131   0.991       .  S
O112        H135   0.990       .  S
O113        H127   0.990       .  S
O113        H134   0.990       .  S
O114        C118   1.292       .  A
O115        C118   1.289       .  A
O116      Zr1626   2.436   1_455  S
O116        H126   0.990       .  S
O117      Zr1626   2.437   1_455  S
O117        H130   0.991       .  S
C118        C274   1.493       .  S
H121       O1632   0.966   1_455  S
Zr141       O142   2.440       .  S
Zr141       O143   2.443       .  S
Zr141       O144   2.451       .  S
Zr141       O147   2.444       .  S
Zr141       O149   2.390       .  S
Zr141       O151   2.407       .  S
Zr141       O534   2.388       .  S
Zr141       O536   2.402       .  S
O142        H198   0.990       .  S
O142        H206   0.990       .  S
O143        C163   1.284       .  A
O144        C165   1.288       .  A
O145       Zr155   2.434       .  S
O145        C164   1.283       .  A
O146       Zr154   2.448       .  S
O146        C165   1.287       .  A
O147        C548   1.288       .  A
O148       Zr156   2.406       .  S
O148        C547   1.281       .  A
O149       Zr154   2.395       .  S
O149       Zr540   2.380       .  S
O150       Zr155   2.396       .  S
O150       Zr156   2.372       .  S
O150       Zr525   2.386   1_554  S
O150        H185   0.966       .  S
O151       Zr154   2.405       .  S
O151       Zr555   2.390       .  S
O151        H188   0.965       .  S
O152       Zr155   2.400       .  S
O152       Zr171   2.394       .  S
O152       Zr525   2.403   1_554  S
Zr153       O178   2.442       .  S
Zr153       O172   2.418       .  S
Zr153       O180   2.394       .  S
Zr153       O168   2.406       .  S
Zr153       O159   2.395       .  S
Zr153       O160   2.391       .  S
Zr153       O161   2.370       .  S
Zr153       O162   2.381       .  S
Zr154       O173   2.436       .  S
Zr154       O166   2.436       .  S
Zr154       O167   2.455       .  S
Zr154       O544   2.401       .  S
Zr154       O545   2.391       .  S
Zr155       O157   2.436       .  S
Zr155       O179   2.445       .  S
Zr155       O181   2.458       .  S
Zr155       O159   2.395       .  S
Zr155       O162   2.386       .  S
Zr156       O182   2.437       .  S
Zr156       O183   2.436       .  S
Zr156       O158   2.437       .  S
Zr156       O159   2.385       .  S
Zr156       O160   2.389       .  S
Zr156       O533   2.384   1_554  S
O157        H194   0.990       .  S
O158        H189   0.990       .  S
O158        H587   0.989       .  S
O160       Zr538   2.392   1_554  S
O160        H186   0.966       .  S
O161       Zr171   2.376       .  S
O161       Zr538   2.386   1_554  S
O162       Zr171   2.375       .  S
O162        H187   0.966       .  S
C163        O532   1.280       .  A
C163        C325   1.481       .  S
C164        O531   1.285   1_554  A
C164        C346   1.478       .  S
C165        C362   1.490       .  S
O166        H202   0.990       .  S
O167        C553   1.288       .  A
O168        C169   1.279       .  A
C169        O551   1.289       .  A
C169        C302   1.473       .  S
O170       Zr555   2.436       .  S
O170        H199   0.990       .  S
Zr171       O175   2.435       .  S
Zr171       O554   2.437   1_554  S
Zr171       O558   2.436   1_554  S
Zr171       O176   2.418       .  S
Zr171       O535   2.387   1_554  S
O172        C177   1.279       .  A
O173        H190   0.990       .  S
O173        H205   0.990       .  S
O174       Zr555   2.440       .  S
O174        H191   0.990       .  S
O175        H195   0.990       .  S
O175        H204   0.990       .  S
O176        C177   1.281       .  A
C177        C285   1.459       .  S
O178        H197   0.990       .  S
O178        H201   0.990       .  S
O179        H193   0.990       .  S
O179        H200   0.989       .  S
O180        C184   1.277       .  A
O181        C184   1.287       .  A
O182        H192   0.991       .  S
O183        H196   0.990       .  S
C184        C278   1.473       .  S
H203        O542   0.990       .  S
Zr207       O208   2.444       .  S
Zr207       O209   2.458       .  S
Zr207       O210   2.452       .  S
Zr207       O213   2.418       .  S
Zr207       O215   2.379       .  S
Zr207       O216   2.380       .  S
Zr207       O217   2.408       .  S
Zr207       O218   2.409       .  S
O208        H264   0.990       .  S
O208        H272   0.991       .  S
O209        C229   1.289       .  A
O210        C231   1.286       .  A
O211       Zr221   2.479       .  S
O211        C230   1.292       .  A
O212       Zr988   2.462       .  S
O212        C231   1.288       .  A
O213        C230   1.281       .  A
O214       Zr222   2.407       .  S
O214        C229   1.278       .  A
O215       Zr222   2.396       .  S
O215       Zr988   2.402       .  S
O216       Zr221   2.392       .  S
O216       Zr222   2.377       .  S
O216        H251   0.965       .  S
O217       Zr237   2.396       .  S
O217       Zr988   2.399       .  S
O217        H254   0.965       .  S
O218       Zr221   2.396       .  S
O218       Zr237   2.401       .  S
Zr219       O244   2.443       .  S
Zr219       O238   2.454       .  S
Zr219       O246   2.428       .  S
Zr219       O234   2.444       .  S
Zr219       O226   2.410       .  S
Zr219       O227   2.373       .  S
Zr219       O993   2.404   1_545  S
Zr219       O996   2.385   1_545  S
Zr220       O239   2.441       .  S
Zr220       O232   2.435       .  S
Zr220       O233   2.450       .  S
Zr220       O980   2.435       .  S
Zr220       O226   2.402       .  S
Zr220       O227   2.400       .  S
Zr220       O983   2.410   1_545  S
Zr220       O985   2.407   1_545  S
Zr221       O223   2.435       .  S
Zr221       O245   2.439       .  S
Zr221       O247   2.452       .  S
Zr221       O225   2.405       .  S
Zr221       O228   2.406       .  S
Zr222       O248   2.439       .  S
Zr222      O1017   2.437       .  S
Zr222       O992   2.437       .  S
Zr222       O225   2.382       .  S
Zr222       O994   2.387       .  S
O223        H260   0.990       .  S
O224       Zr990   2.439       .  S
O224        H255   0.990       .  S
O224        H269   0.990       .  S
O225       Zr987   2.399       .  S
O226       Zr990   2.395       .  S
O226        H252   0.965       .  S
O227      Zr1005   2.388   1_545  S
O228       Zr237   2.375       .  S
O228       Zr987   2.390       .  S
O228        H253   0.966       .  S
C229        C334   1.478       .  S
C230        C366   1.490       .  S
C231        C382   1.493       .  S
O232        H268   0.990       .  S
O233        C235   1.286       .  A
O234        C235   1.285       .  A
C235        C282   1.481       .  S
O236       Zr237   2.435       .  S
O236        H265   0.990       .  S
Zr237       O240   2.437       .  S
Zr237       O241   2.437       .  S
Zr237       O242   2.425       .  S
Zr237       O995   2.382       .  S
O238        C243   1.286       .  A
O239        H256   0.990       .  S
O239        H271   0.990       .  S
O240        H257   0.990       .  S
O241        H261   0.990       .  S
O241        H270   0.990       .  S
O242       C1011   1.282       .  A
C243       O1010   1.277   1_545  A
C243        C290   1.479       .  S
O244        H263   0.991       .  S
O244        H267   0.990       .  S
O245        H259   0.990       .  S
O245        H266   0.990       .  S
O246       C1018   1.284   1_545  A
O247        C250   1.287       .  A
O248        H258   0.990       .  S
O249       Zr990   2.434       .  S
O249        H262   0.990       .  S
C250       O1014   1.286       .  A
C250        C314   1.486       .  S
C273        C274   1.354       .  D
C273        H275   1.088       .  S
C274        H276   1.086       .  S
C277        C278   1.353       .  D
C277        H279   1.088       .  S
C278        H280   1.086       .  S
C281        C282   1.355       .  D
C281        H283   1.086       .  S
C282        H284   1.088       .  S
C285        C286   1.345       .  D
C285        H287   1.082       .  S
C286        H288   1.089       .  S
C289        C290   1.357       .  D
C289        H291   1.087   1_545  S
C290        H292   1.087       .  S
C293        C294   1.347       .  D
C293        H295   1.088   1_545  S
C294        C805   1.478       .  S
C294       H1064   1.086   1_554  S
H296       C1062   1.086   1_556  S
C297       C1834   1.336   1_455  D
C297        H299   1.088       .  S
C298       C1833   1.351       .  D
C298        H300   1.083       .  S
C301        C302   1.346       .  D
C301        H303   1.087       .  S
C302        H304   1.084       .  S
C305        C306   1.352       .  D
C305        H307   1.081       .  S
C306       C1542   1.527       .  S
C306       H1844   1.086       .  S
H308       C1842   1.086       .  S
C309        C310   1.354       .  D
C309        H311   1.088       .  S
C310        H312   1.087       .  S
C313       C1541   1.533   1_455  S
C313       C1082   1.353   1_545  D
C313       H1083   1.088       .  S
C314       C1081   1.351       .  D
C314       H1084   1.086       .  S
H315       C1081   1.088       .  S
H316       C1082   1.086       .  S
C317        C318   1.349       .  D
C317       H1087   1.087       .  S
C318        H320   1.088   1_545  S
H319       C1085   1.087       .  S
C321        C775   1.534       .  S
C321        C322   1.341       .  D
C321       H1091   1.088       .  S
C322        C388   1.535   1_554  S
C322        H324   1.089       .  S
H323       C1089   1.088   1_545  S
C325        C326   1.351       .  D
C325        H327   1.082       .  S
C326        H328   1.086       .  S
C329        C714   1.338       .  D
C329        H715   1.088       .  S
C330        C713   1.353   1_554  D
C330        H332   1.086       .  S
H331        C713   1.087       .  S
C333        C334   1.359       .  D
C333        H335   1.087       .  S
C334        H336   1.083       .  S
C337        C387   1.537   1_554  S
C337        C338   1.344       .  D
C337        H723   1.087       .  S
C338       C1542   1.537       .  S
C338        H340   1.087   1_554  S
H339        C721   1.085       .  S
C341        C342   1.356       .  D
C341        H343   1.088       .  S
C342        H344   1.083       .  S
C345        C730   1.344       .  D
C345        H731   1.088       .  S
C346        C729   1.344   1_554  D
C346        H732   1.086       .  S
H347        C729   1.088       .  S
H348        C730   1.086       .  S
C349        C350   1.350       .  D
C349        H735   1.081       .  S
C350        H352   1.088       .  S
H351        C733   1.083       .  S
C353        C354   1.349       .  D
C353        H355   1.087       .  S
C354        H356   1.088       .  S
C357        C358   1.355       .  D
C357        H359   1.088       .  S
C358        H360   1.086       .  S
C361        C362   1.350       .  D
C361        H363   1.088       .  S
C362        H364   1.086       .  S
C365        C366   1.351       .  D
C365        H367   1.087       .  S
C366        H368   1.088       .  S
C369        C370   1.359       .  D
C369        H371   1.087       .  S
C370        C773   1.542       .  S
C370       H1140   1.087       .  S
H372       C1138   1.088       .  S
C373        C374   1.348       .  D
C373        H375   1.088       .  S
C374        H376   1.087       .  S
C377        C378   1.349       .  D
C377        H379   1.088       .  S
C378        H380   1.086       .  S
C381        C382   1.358       .  D
C381        H383   1.087       .  S
C382        H384   1.086       .  S
C385        C753   1.552       .  S
C385        C758   1.525       .  S
C385        C761   1.523       .  S
C385        C765   1.530       .  S
C386        C737   1.559       .  S
C386        C741   1.536       .  S
C386        C745   1.528       .  S
C386        C749   1.533       .  S
C387        C725   1.528       .  S
C387        C729   1.526       .  S
C387        C734   1.525       .  S
C388        C710   1.517       .  S
C388        C713   1.537       .  S
C388        C717   1.532       .  S
C389        C694   1.539       .  S
C389       C2233   1.536   1_545  S
C389        C702   1.537       .  S
C389       C1522   1.552   1_545  S
C390        C681   1.520       .  S
C390        C685   1.542   1_655  S
C390       C2226   1.540       .  S
C390       C2258   1.542       .  S
C391        C670   1.527       .  S
C391        C673   1.538   1_545  S
C391        C677   1.530   1_545  S
C391       C1473   1.536   1_545  S
C392        C657   1.542       .  S
C392        C661   1.529       .  S
C392        C665   1.549       .  S
C392        C738   1.556       .  S
Zr393       O394   2.443       .  S
Zr393       O395   2.459       .  S
Zr393       O396   2.436       .  S
Zr393       O399   2.427       .  S
Zr393       O401   2.379       .  S
Zr393       O403   2.410       .  S
O394        H450   0.991       .  S
O394        H458   0.990       .  S
O395        C415   1.287       .  A
O396        C417   1.284       .  A
O397       Zr407   2.419       .  S
O397        C416   1.280       .  A
O398      Zr1942   2.422       .  S
O398        C417   1.280       .  A
O400       Zr408   2.392       .  S
O401      Zr1942   2.397       .  S
O402       Zr407   2.393       .  S
O402       Zr408   2.365       .  S
O402        H437   0.966       .  S
O403      Zr1942   2.401       .  S
O403       Zr807   2.401   1_556  S
O403        H440   0.966       .  S
O404       Zr407   2.395       .  S
O404      Zr1191   2.396       .  S
Zr405      O1966   2.443       .  S
Zr405      O1192   2.425       .  S
Zr405      O1200   2.429       .  S
Zr405      O2724   2.435       .  S
Zr405       O411   2.395       .  S
Zr405      O1948   2.409       .  S
Zr405      O1181   2.382       .  S
Zr405      O1182   2.388       .  S
Zr406      O1193   2.437       .  S
Zr406       O418   2.434       .  S
Zr406      O1934   2.422   1_455  S
Zr406       O419   2.443       .  S
Zr406      O1937   2.399   1_455  S
Zr406      O1939   2.408   1_455  S
Zr406      O2333   2.387   1_456  S
Zr407      O1177   2.435       .  S
Zr407       O431   2.438       .  S
Zr407       O433   2.423       .  S
Zr407       O411   2.388       .  S
Zr407      O1182   2.395       .  S
Zr408       O434   2.439       .  S
Zr408      O1971   2.440       .  S
Zr408      O1946   2.439       .  S
Zr408       O411   2.384       .  S
Zr408      O1948   2.372       .  S
O409      Zr1175   2.435   1_545  S
O409        H446   0.990       .  S
O410      Zr1944   2.435   1_455  S
O410        H441   0.990       .  S
O412      Zr1941   2.410       .  S
O412      Zr1944   2.394   1_455  S
O412        H438   0.965       .  S
O413      Zr1173   2.383       .  S
O413      Zr2326   2.391   1_545  S
O413       Zr423   2.376       .  S
O414      Zr1173   2.390       .  S
O414      Zr1175   2.391   1_545  S
O414       Zr423   2.380       .  S
O414        H439   0.966       .  S
C415        C733   1.480       .  S
C416        C714   1.474       .  S
C417        C762   1.472       .  S
O418        H454   0.990       .  S
O420      Zr2709   2.443       .  S
O420       C1189   1.286   1_545  A
C421       O1188   1.286       .  A
C421       C1446   1.474       .  S
O422        H451   0.990       .  S
Zr423       O427   2.439       .  S
Zr423       O428   2.401       .  S
Zr423       O787   2.380   1_545  S
Zr423      O1172   2.389       .  S
O424      Zr1173   2.443       .  S
O424        C429   1.285       .  A
O425      Zr1174   2.436   1_545  S
O425        H442   0.990       .  S
O425       H1993   0.990       .  S
O426        H443   0.990       .  S
O427        H447   0.990       .  S
O427        H456   0.990       .  S
O428        C429   1.280       .  A
C429        C689   1.480       .  S
O430      Zr1941   2.441       .  S
O430        H449   0.990       .  S
O430        H453   0.990       .  S
O431        H445   0.990       .  S
O431        H452   0.990       .  S
O432      Zr1173   2.462       .  S
O432        C436   1.292       .  A
O433       C1204   1.280       .  A
O434        H444   0.990       .  S
O435      Zr1944   2.437   1_455  S
O435        H448   0.990       .  S
C436       O1201   1.280       .  A
C436        C701   1.483       .  S
H457       O1961   0.990       .  S
Zr459       O460   2.442       .  S
Zr459       O461   2.438       .  S
Zr459       O462   2.470       .  S
Zr459       O465   2.469       .  S
Zr459       O467   2.387       .  S
Zr459       O468   2.387       .  S
Zr459       O469   2.413       .  S
Zr459       O470   2.404       .  S
O460        H516   0.990       .  S
O460        H524   0.990       .  S
O461        C481   1.284       .  A
O462        C483   1.292       .  A
O463      Zr2009   2.391       .  S
O463        C482   1.274       .  A
O464       Zr472   2.440       .  S
O464        C483   1.284       .  A
O465        C482   1.293       .  A
O466       Zr474   2.406       .  S
O466        C481   1.279       .  A
O467       Zr472   2.399       .  S
O467       Zr474   2.384       .  S
O468      Zr2009   2.393       .  S
O468       Zr474   2.383       .  S
O468        H503   0.966       .  S
O469       Zr472   2.411       .  S
O469       Zr489   2.381       .  S
O469        H506   0.964       .  S
O470      Zr2009   2.395       .  S
O470       Zr489   2.391       .  S
Zr471       O496   2.440       .  S
Zr471       O490   2.435       .  S
Zr471       O498   2.459       .  S
Zr471      O2022   2.482       .  S
Zr471       O477   2.396       .  S
Zr471      O2014   2.407   1_455  S
Zr471      O2015   2.387   1_455  S
Zr471      O2016   2.398       .  S
Zr472       O491   2.437       .  S
Zr472       O484   2.433       .  S
Zr472       O485   2.449       .  S
Zr472       O478   2.400       .  S
Zr472       O479   2.398       .  S
Zr473       O475   2.435       .  S
Zr473       O497   2.438       .  S
Zr473      O1999   2.488   1_455  S
Zr473       O499   2.453       .  S
Zr473      O2004   2.390   1_455  S
Zr473      O2006   2.389   1_455  S
Zr473       O477   2.398       .  S
Zr473      O2016   2.404       .  S
Zr474      O2036   2.437       .  S
Zr474      O2037   2.438       .  S
Zr474       O476   2.440       .  S
Zr474      O2013   2.388       .  S
Zr474       O478   2.390       .  S
O475        H512   0.990       .  S
O476        H507   0.990       .  S
O476        H521   0.990       .  S
O477      Zr2010   2.374   1_455  S
O478      Zr2007   2.402       .  S
O478        H504   0.965       .  S
O479      Zr2007   2.381       .  S
O479       Zr489   2.379       .  S
O480      Zr2007   2.383       .  S
O480      Zr2009   2.389       .  S
O480       Zr489   2.380       .  S
O480       H2041   0.966       .  S
C481        C726   1.472       .  S
C482        C757   1.474       .  S
C483        C742   1.488       .  S
O484        H520   0.990       .  S
O485        C487   1.287       .  A
O486      Zr2007   2.439       .  S
O486        C487   1.286       .  A
C487        C693   1.482       .  S
O488       Zr489   2.438       .  S
O488        H517   0.990       .  S
Zr489       O492   2.437       .  S
Zr489       O493   2.440       .  S
Zr489       O494   2.400       .  S
O490       C2031   1.282       .  A
O491        H508   0.990       .  S
O491        H523   0.990       .  S
O492        H509   0.990       .  S
O493        H513   0.990       .  S
O493        H522   0.991       .  S
O494        C495   1.278       .  A
C495       O2026   1.283       .  A
C495        C682   1.468       .  S
O496        H515   0.990       .  S
O496        H519   0.990       .  S
O497        H511   0.989       .  S
O497        H518   0.990       .  S
O498        C502   1.291       .  A
O499        C502   1.288       .  A
O500      Zr2010   2.436   1_455  S
O500        H510   0.990       .  S
O501      Zr2010   2.439   1_455  S
O501        H514   0.990       .  S
C502        C658   1.491       .  S
H505       O2016   0.966       .  S
Zr525       O526   2.444       .  S
Zr525       O527   2.434       .  S
Zr525       O528   2.447       .  S
Zr525       O531   2.429       .  S
Zr525       O533   2.390       .  S
Zr525       O535   2.405       .  S
O526        H582   0.991       .  S
O526        H590   0.990       .  S
O527        C547   1.281   1_556  A
O528        C549   1.286       .  A
O529       Zr539   2.425       .  S
O529        C548   1.281       .  A
O530       Zr538   2.431       .  S
O530        C549   1.283       .  A
O532       Zr540   2.403       .  S
O533       Zr538   2.409       .  S
O534       Zr539   2.392       .  S
O534       Zr540   2.379       .  S
O534        H569   0.966       .  S
O535       Zr538   2.405       .  S
O535        H572   0.965       .  S
O536       Zr539   2.394       .  S
O536       Zr555   2.395       .  S
Zr537       O562   2.443       .  S
Zr537       O556   2.424       .  S
Zr537       O564   2.427       .  S
Zr537       O552   2.425       .  S
Zr537       O543   2.393       .  S
Zr537       O544   2.405       .  S
Zr537       O545   2.377       .  S
Zr537       O546   2.381       .  S
Zr538       O557   2.436       .  S
Zr538       O550   2.436       .  S
Zr538       O551   2.460   1_556  S
Zr539       O541   2.436       .  S
Zr539       O563   2.442       .  S
Zr539       O565   2.436       .  S
Zr539       O543   2.388       .  S
Zr539       O546   2.392       .  S
Zr540       O566   2.436       .  S
Zr540       O567   2.436       .  S
Zr540       O542   2.437       .  S
Zr540       O543   2.386       .  S
Zr540       O544   2.390       .  S
O541        H578   0.990       .  S
O542        H573   0.990       .  S
O544        H570   0.966       .  S
O545       Zr555   2.370       .  S
O546       Zr555   2.382       .  S
O546        H571   0.966       .  S
C547        C709   1.472   1_554  S
C548        C730   1.479       .  S
C549        C746   1.478       .  S
O550        H586   0.990       .  S
O552        C553   1.282       .  A
C553        C686   1.476       .  S
O554        H583   0.990       .  S
Zr555       O559   2.441       .  S
Zr555       O560   2.413       .  S
O556        C561   1.280       .  A
O557        H574   0.990       .  S
O557        H589   0.990       .  S
O558        H575   0.990       .  S
O559        H579   0.990       .  S
O559        H588   0.990       .  S
O560        C561   1.279       .  A
C561        C669   1.461       .  S
O562        H581   0.990       .  S
O562        H585   0.991       .  S
O563        H577   0.990       .  S
O563        H584   0.990       .  S
O564        C568   1.285       .  A
O565        C568   1.283       .  A
O566        H576   0.991       .  S
O567        H580   0.990       .  S
C568        C662   1.479       .  S
Zr591       O592   2.442       .  S
Zr591       O593   2.456       .  S
Zr591       O594   2.466       .  S
Zr591       O597   2.485       .  S
Zr591       O599   2.389       .  S
Zr591       O600   2.384       .  S
Zr591       O601   2.418       .  S
Zr591       O602   2.402       .  S
O592        H648   0.990       .  S
O592        H656   0.990       .  S
O593        C613   1.288       .  A
O594        C615   1.292       .  A
O595       Zr605   2.407       .  S
O595        C614   1.278       .  A
O596      Zr1372   2.419       .  S
O596        C615   1.280       .  A
O597        C614   1.297       .  A
O598       Zr606   2.416       .  S
O598        C613   1.280       .  A
O599      Zr1372   2.401       .  S
O599       Zr606   2.378       .  S
O600       Zr605   2.395       .  S
O600       Zr606   2.383       .  S
O600        H635   0.966       .  S
O601      Zr1372   2.411       .  S
O601       Zr621   2.381       .  S
O601        H638   0.965       .  S
O602       Zr605   2.394       .  S
O602       Zr621   2.391       .  S
Zr603       O628   2.444       .  S
Zr603       O622   2.454       .  S
Zr603       O630   2.442       .  S
Zr603       O618   2.466       .  S
Zr603      O1377   2.407   1_545  S
Zr603       O610   2.406       .  S
Zr603       O611   2.375       .  S
Zr603      O1380   2.390   1_545  S
Zr604       O623   2.437       .  S
Zr604       O616   2.435       .  S
Zr604      O1364   2.442       .  S
Zr604       O617   2.453       .  S
Zr604      O1367   2.406   1_545  S
Zr604      O1369   2.407   1_545  S
Zr604       O610   2.404       .  S
Zr604       O611   2.403       .  S
Zr605       O607   2.436       .  S
Zr605       O629   2.437       .  S
Zr605       O631   2.412       .  S
Zr605       O609   2.389       .  S
Zr605       O612   2.396       .  S
Zr606       O632   2.436       .  S
Zr606      O1401   2.437       .  S
Zr606      O1376   2.438       .  S
Zr606       O609   2.396       .  S
Zr606      O1378   2.394       .  S
O607        H644   0.990       .  S
O608      Zr1374   2.437   1_545  S
O608        H639   0.990       .  S
O608        H653   0.990       .  S
O609      Zr1371   2.404       .  S
O610      Zr1374   2.398   1_545  S
O610        H636   0.965       .  S
O611      Zr1389   2.391   1_545  S
O612      Zr1371   2.381       .  S
O612       Zr621   2.382       .  S
O612        H637   0.966       .  S
C613        C718   1.484       .  S
C614        C750   1.492       .  S
C615        C766   1.479       .  S
O616        H652   0.990       .  S
O617        C619   1.286       .  A
O618        C619   1.291       .  A
C619        C666   1.494       .  S
O620       Zr621   2.440       .  S
O620        H649   0.990       .  S
Zr621       O624   2.438       .  S
Zr621       O625   2.438       .  S
Zr621       O626   2.394       .  S
Zr621      O1379   2.384       .  S
O622        C627   1.287       .  A
O623        H640   0.990       .  S
O623        H655   0.990       .  S
O624        H641   0.990       .  S
O625        H645   0.990       .  S
O625        H654   0.990       .  S
O626       C1395   1.275       .  A
C627       O1394   1.278   1_545  A
C627        C674   1.477       .  S
O628        H647   0.991       .  S
O628        H651   0.991       .  S
O629        H643   0.990       .  S
O629        H650   0.990       .  S
O630       C1402   1.286   1_545  A
O631        C634   1.278       .  A
O632        H642   0.991       .  S
O633      Zr1374   2.436   1_545  S
O633        H646   0.990       .  S
C634       O1398   1.289       .  A
C634        C698   1.476       .  S
C657        C658   1.354       .  D
C657        H659   1.088       .  S
C658        H660   1.086       .  S
C661        C662   1.347       .  D
C661        H663   1.088       .  S
C662        H664   1.086       .  S
C665        C666   1.364       .  D
C665        H667   1.086       .  S
C666        H668   1.087       .  S
C669        C670   1.349       .  D
C669        H671   1.081       .  S
C670        H672   1.089       .  S
C673        C674   1.357   1_565  D
C673        H675   1.087       .  S
C674        H676   1.087       .  S
C677        C678   1.348   1_565  D
C677        H679   1.088       .  S
C678       C1189   1.484   1_545  S
C678       H1448   1.086       .  S
H680       C1446   1.086       .  S
C681       C2218   1.345   1_655  D
C681        H683   1.090       .  S
C682       C2217   1.351       .  D
C682        H684   1.084       .  S
C685        C686   1.347       .  D
C685        H687   1.088       .  S
C686        H688   1.081       .  S
C689        C690   1.352       .  D
C689        H691   1.080       .  S
C690       C1926   1.525       .  S
C690       H2228   1.088       .  S
H692       C2226   1.086       .  S
C693        C694   1.355       .  D
C693        H695   1.088       .  S
C694        H696   1.086       .  S
C697       C1925   1.537   1_455  S
C697       C1466   1.348   1_545  D
C697       H1467   1.088       .  S
C698       C1465   1.343       .  D
C698       H1468   1.087       .  S
H699       C1465   1.088       .  S
H700       C1466   1.086       .  S
C701        C702   1.344       .  D
C701       H1471   1.087       .  S
C702        H704   1.088   1_545  S
H703       C1469   1.086       .  S
C705       C1159   1.544       .  S
C705        C706   1.342       .  D
C705       H1475   1.087       .  S
C706        H708   1.087       .  S
H707       C1473   1.088   1_545  S
C709        C710   1.343       .  D
C709        H711   1.086       .  S
C710        H712   1.090   1_556  S
C714        H716   1.086       .  S
C717        C718   1.357       .  D
C717        H719   1.087       .  S
C718        H720   1.086       .  S
C721        C722   1.347       .  D
C722       C1926   1.542       .  S
C722        H724   1.085       .  S
C725        C726   1.350       .  D
C725        H727   1.088       .  S
C726        H728   1.082       .  S
C733        C734   1.354       .  D
C734        H736   1.087   1_556  S
C737        C738   1.357       .  D
C737        H739   1.087       .  S
C738        H740   1.087       .  S
C741        C742   1.348       .  D
C741        H743   1.090       .  S
C742        H744   1.086       .  S
C745        C746   1.350       .  D
C745        H747   1.087       .  S
C746        H748   1.087       .  S
C749        C750   1.339       .  D
C749        H751   1.089       .  S
C750        H752   1.085       .  S
C753        C754   1.356       .  D
C753        H755   1.084       .  S
C754       C1157   1.547       .  S
C754       H1524   1.084       .  S
H756       C1522   1.087       .  S
C757        C758   1.337       .  D
C757        H759   1.085       .  S
C758        H760   1.089       .  S
C761        C762   1.347       .  D
C761        H763   1.088       .  S
C762        H764   1.086       .  S
C765        C766   1.344       .  D
C765        H767   1.090       .  S
C766        H768   1.086       .  S
C769       C1137   1.531       .  S
C769       C1142   1.535       .  S
C769       C1145   1.521       .  S
C769       C1149   1.527       .  S
C770       C1121   1.545       .  S
C770       C1125   1.532       .  S
C770       C1129   1.533       .  S
C770       C1133   1.541       .  S
C771       C1489   1.539       .  S
C771       C1109   1.531       .  S
C771       C1113   1.528       .  S
C771       C1118   1.526       .  S
C772       C1474   1.536       .  S
C772       C1094   1.528       .  S
C772       C1097   1.527       .  S
C772       C1101   1.539       .  S
C773       C1078   1.538       .  S
C773       C2617   1.537       .  S
C773       C1086   1.537       .  S
C774       C1065   1.534       .  S
C774       C1069   1.527   1_655  S
C774       C2610   1.525       .  S
C774       C2642   1.541       .  S
C775       C1054   1.523       .  S
C775       C1057   1.540       .  S
C775       C1061   1.529       .  S
C776       C1041   1.534       .  S
C776       C1045   1.531       .  S
C776       C1049   1.538       .  S
C776       C1122   1.544       .  S
Zr777       O778   2.443       .  S
Zr777       O779   2.437       .  S
Zr777       O780   2.447       .  S
Zr777       O783   2.437       .  S
Zr777       O785   2.390       .  S
Zr777      O1170   2.382       .  S
Zr777       O787   2.400       .  S
Zr777      O1172   2.398   1_565  S
O778        H834   0.990       .  S
O778        H842   0.991       .  S
O779        C799   1.283       .  A
O780        C801   1.288       .  A
O781       Zr791   2.421       .  S
O781        C800   1.281       .  A
O782      Zr2326   2.412       .  S
O782        C801   1.279       .  A
O783       C1184   1.288       .  A
O784       Zr792   2.393       .  S
O784       C1183   1.277   1_554  A
O785      Zr2326   2.395       .  S
O785      Zr1176   2.377       .  S
O786      Zr1161   2.391   1_554  S
O786       Zr791   2.395       .  S
O786       Zr792   2.371       .  S
O786        H821   0.966       .  S
O787      Zr2326   2.399       .  S
O787        H824   0.965   1_565  S
O788      Zr1161   2.406   1_554  S
O788       Zr791   2.402       .  S
Zr789      O2350   2.444       .  S
Zr789      O1572   2.409       .  S
Zr789       O795   2.400       .  S
Zr789      O2332   2.401       .  S
Zr790       O802   2.437       .  S
Zr790      O2318   2.430   1_455  S
Zr790       O803   2.443       .  S
Zr790      O2321   2.402   1_455  S
Zr790      O2323   2.406   1_455  S
Zr790      O1180   2.400       .  S
Zr790      O1949   2.395   1_465  S
Zr791       O815   2.439       .  S
Zr791       O817   2.436       .  S
Zr791       O795   2.387       .  S
Zr792       O818   2.436       .  S
Zr792      O2355   2.437       .  S
Zr792      O2330   2.443       .  S
Zr792      O1169   2.386   1_554  S
Zr792       O795   2.393       .  S
Zr792      O2332   2.368       .  S
O793        H830   0.990       .  S
O794      Zr2328   2.438   1_455  S
O794        H825   0.991       .  S
O794       H1223   0.990   1_554  S
O796      Zr2325   2.407   1_565  S
O796      Zr1174   2.405   1_554  S
O796      Zr2328   2.391   1_455  S
O796        H822   0.965       .  S
O797      Zr1942   2.393   1_554  S
O797       Zr807   2.379       .  S
O798       Zr807   2.377       .  S
O798        H823   0.966       .  S
C799       O1168   1.281       .  A
C799       C1117   1.480       .  S
C800       O1167   1.288   1_554  A
C800       C1098   1.476       .  S
C801       C1146   1.468       .  S
O802        H838   0.990       .  S
O803       C1189   1.285       .  A
O804      Zr1557   2.436   1_455  S
C805       O1187   1.283   1_554  A
O806      Zr1191   2.436       .  S
O806        H835   0.990       .  S
Zr807      O1190   2.436   1_554  S
Zr807      O1194   2.436   1_554  S
Zr807       O811   2.442       .  S
Zr807       O812   2.429       .  S
O808        C813   1.283       .  A
O809        H826   0.990       .  S
O809       H2377   0.989       .  S
O810      Zr1191   2.435       .  S
O810        H827   0.990       .  S
O811        H831   0.990       .  S
O811        H840   0.989       .  S
O812        C813   1.283       .  A
C813       C1073   1.479       .  S
O814      Zr2325   2.442       .  S
O814        H833   0.990   1_545  S
O814        H837   0.990       .  S
O815        H829   0.990       .  S
O815        H836   0.990       .  S
O816        C820   1.291       .  A
O818        H828   0.990       .  S
O819      Zr2328   2.436   1_455  S
O819        H832   0.990       .  S
C820       C1085   1.485       .  S
H839       O1178   0.990       .  S
H841       O2345   0.989       .  S
Zr843       O844   2.445       .  S
Zr843       O845   2.446       .  S
Zr843       O846   2.453       .  S
Zr843       O849   2.424       .  S
Zr843       O851   2.377       .  S
Zr843       O852   2.388       .  S
Zr843       O853   2.410       .  S
Zr843       O854   2.406       .  S
O844        H900   0.990       .  S
O844        H908   0.991       .  S
O845        C865   1.285       .  A
O846        C867   1.288       .  A
O847      Zr2393   2.447       .  S
O847        C866   1.286       .  A
O848       Zr856   2.441       .  S
O848        C867   1.284       .  A
O849        C866   1.282       .  A
O850       Zr858   2.399       .  S
O850        C865   1.277       .  A
O851       Zr856   2.404       .  S
O851       Zr858   2.388       .  S
O852      Zr2393   2.403       .  S
O852       Zr858   2.383       .  S
O852        H887   0.966       .  S
O853       Zr856   2.406       .  S
O853       Zr873   2.384       .  S
O853        H890   0.964       .  S
O854      Zr2393   2.397       .  S
O854       Zr873   2.386       .  S
Zr855       O880   2.440       .  S
Zr855       O874   2.441       .  S
Zr855       O882   2.457       .  S
Zr855      O2406   2.465       .  S
Zr855       O861   2.393       .  S
Zr855      O2398   2.406   1_455  S
Zr855      O2399   2.382   1_455  S
Zr855      O2400   2.393   1_455  S
Zr856       O875   2.436       .  S
Zr856       O868   2.435       .  S
Zr856       O869   2.457       .  S
Zr856       O862   2.396       .  S
Zr856       O863   2.393       .  S
Zr857       O859   2.438       .  S
Zr857       O881   2.437       .  S
Zr857      O2383   2.446   1_455  S
Zr857       O883   2.433       .  S
Zr857      O2388   2.388   1_455  S
Zr857      O2390   2.395   1_455  S
Zr857       O861   2.394       .  S
Zr857      O2400   2.407   1_455  S
Zr858      O2420   2.437       .  S
Zr858      O2421   2.437       .  S
Zr858       O860   2.436       .  S
Zr858      O2397   2.386       .  S
Zr858       O862   2.386       .  S
O859        H896   0.989       .  S
O860        H891   0.990       .  S
O860        H905   0.990       .  S
O861      Zr2394   2.380   1_455  S
O862      Zr2391   2.394       .  S
O862        H888   0.965       .  S
O863      Zr2391   2.376       .  S
O863       Zr873   2.381       .  S
O864      Zr2391   2.390       .  S
O864      Zr2393   2.398       .  S
O864       Zr873   2.375       .  S
O864       H2425   0.966       .  S
C865       C1110   1.473       .  S
C866       C1141   1.474       .  S
C867       C1126   1.481       .  S
O868        H904   0.990       .  S
O869        C871   1.288       .  A
O870      Zr2391   2.427       .  S
O870        C871   1.283       .  A
C871       C1077   1.482       .  S
O872       Zr873   2.438       .  S
O872        H901   0.990       .  S
Zr873       O876   2.435       .  S
Zr873       O877   2.442       .  S
Zr873       O878   2.402       .  S
O874       C2415   1.284   1_455  A
O875        H892   0.990       .  S
O875        H907   0.990       .  S
O876        H893   0.990       .  S
O877        H897   0.990       .  S
O877        H906   0.990       .  S
O878        C879   1.279       .  A
C879       O2410   1.282       .  A
C879       C1066   1.473       .  S
O880        H899   0.990       .  S
O880        H903   0.990       .  S
O881        H895   0.990       .  S
O881        H902   0.990       .  S
O882        C886   1.290       .  A
O883        C886   1.283       .  A
O884      Zr2394   2.436   1_455  S
O884        H894   0.990       .  S
O885      Zr2394   2.437   1_455  S
O885        H898   0.990       .  S
C886       C1042   1.482       .  S
H889       O2400   0.965   1_455  S
Zr909       O910   2.440       .  S
Zr909       O911   2.426       .  S
Zr909       O912   2.458       .  S
Zr909       O915   2.445       .  S
Zr909       O917   2.383       .  S
Zr909      O1302   2.389       .  S
Zr909       O919   2.402       .  S
Zr909      O1304   2.399       .  S
O910        H966   0.990       .  S
O910        H974   0.990       .  S
O911        C931   1.281       .  A
O912        C933   1.290       .  A
O913       Zr923   2.421       .  S
O913        C932   1.281       .  A
O914       Zr922   2.423       .  S
O914        C933   1.281       .  A
O915       C1316   1.289       .  A
O916       Zr924   2.399       .  S
O916       C1315   1.280   1_554  A
O917       Zr922   2.393       .  S
O917      Zr1308   2.382       .  S
O918      Zr1293   2.386   1_554  S
O918       Zr923   2.390       .  S
O918       Zr924   2.375       .  S
O918        H953   0.966       .  S
O919       Zr922   2.402       .  S
O919      Zr1323   2.382       .  S
O919        H956   0.965       .  S
O920      Zr1293   2.401   1_554  S
O920       Zr923   2.395       .  S
O920       Zr939   2.385   1_554  S
Zr921       O946   2.441       .  S
Zr921       O940   2.429       .  S
Zr921       O948   2.444       .  S
Zr921       O936   2.450       .  S
Zr921       O927   2.399       .  S
Zr921       O928   2.400       .  S
Zr921       O929   2.383       .  S
Zr921       O930   2.388       .  S
Zr922       O941   2.437       .  S
Zr922       O934   2.436       .  S
Zr922       O935   2.432       .  S
Zr922      O1312   2.396       .  S
Zr922      O1313   2.390       .  S
Zr923       O925   2.438       .  S
Zr923       O947   2.437       .  S
Zr923       O949   2.430       .  S
Zr923       O927   2.393       .  S
Zr923       O930   2.393       .  S
Zr924       O950   2.437       .  S
Zr924       O951   2.435       .  S
Zr924       O926   2.438       .  S
Zr924      O1301   2.377   1_554  S
Zr924       O927   2.386       .  S
Zr924       O928   2.384       .  S
O925        H962   0.989       .  S
O926        H957   0.990       .  S
O926       H1355   0.990       .  S
O928      Zr1306   2.396   1_554  S
O928        H954   0.965       .  S
O929      Zr1306   2.393   1_554  S
O929       Zr939   2.382   1_554  S
O930       Zr939   2.377   1_554  S
O930        H955   0.965       .  S
C931       O1300   1.282       .  A
C931       C1093   1.466       .  S
C932       O1299   1.284   1_554  A
C932       C1114   1.468       .  S
C933       C1130   1.482       .  S
O934        H970   0.990       .  S
O935       C1321   1.282       .  A
O936        C937   1.287       .  A
C937       O1319   1.280   1_554  A
C937       C1070   1.466       .  S
O938      Zr1323   2.435       .  S
O938        H967   0.990       .  S
Zr939      O1322   2.440       .  S
Zr939      O1326   2.438       .  S
Zr939       O943   2.439   1_556  S
Zr939       O944   2.400   1_556  S
Zr939      O1303   2.387       .  S
O940        C945   1.281       .  A
O941        H958   0.990       .  S
O941        H973   0.990       .  S
O942      Zr1323   2.436       .  S
O942        H959   0.990       .  S
O943        H963   0.990       .  S
O943        H972   0.990       .  S
O944        C945   1.279       .  A
C945       C1053   1.459       .  S
O946        H965   0.990       .  S
O946        H969   0.991       .  S
O947        H961   0.990       .  S
O947        H968   0.990       .  S
O948        C952   1.287       .  A
O949        C952   1.282       .  A
O950        H960   0.990       .  S
O951        H964   0.990       .  S
C952       C1046   1.481       .  S
H971       O1310   0.990       .  S
Zr975       O976   2.444       .  S
Zr975       O977   2.448       .  S
Zr975       O978   2.440       .  S
Zr975       O981   2.435       .  S
Zr975       O983   2.385       .  S
Zr975       O984   2.379       .  S
Zr975       O985   2.411       .  S
Zr975       O986   2.403       .  S
O976       H1032   0.990       .  S
O976       H1040   0.990       .  S
O977        C997   1.286       .  A
O978        C999   1.286       .  A
O979       Zr989   2.456       .  S
O979        C998   1.288       .  A
O980        C999   1.282   1_545  A
O981        C998   1.285       .  A
O982       Zr990   2.423   1_565  S
O982        C997   1.280       .  A
O983       Zr990   2.383   1_565  S
O984       Zr989   2.399       .  S
O984       Zr990   2.375   1_565  S
O984       H1019   0.966       .  S
O985      Zr1005   2.389       .  S
O985       H1022   0.965       .  S
O986       Zr989   2.398       .  S
O986      Zr1005   2.391       .  S
Zr987      O1012   2.444       .  S
Zr987      O1006   2.441       .  S
Zr987      O1014   2.439       .  S
Zr987      O1002   2.448       .  S
Zr987       O994   2.405       .  S
Zr987       O995   2.378       .  S
Zr988      O1007   2.437       .  S
Zr988      O1000   2.435       .  S
Zr988      O1001   2.443       .  S
Zr988       O994   2.408       .  S
Zr988       O995   2.407       .  S
Zr989       O991   2.435       .  S
Zr989      O1013   2.440       .  S
Zr989      O1015   2.456       .  S
Zr989       O993   2.398       .  S
Zr989       O996   2.403       .  S
Zr990      O1016   2.438   1_545  S
Zr990       O993   2.397   1_545  S
O991       H1028   0.990       .  S
O992       H1023   0.990       .  S
O992       H1037   0.990       .  S
O994       H1020   0.965       .  S
O996      Zr1005   2.382       .  S
O996       H1021   0.966       .  S
C997       C1102   1.481       .  S
C998       C1134   1.485       .  S
C999       C1150   1.475       .  S
O1000      H1036   0.990       .  S
O1001      C1003   1.286       .  A
O1002      C1003   1.288       .  A
C1003      C1050   1.481       .  S
O1004     Zr1005   2.436       .  S
O1004      H1033   0.990       .  S
Zr1005     O1008   2.437       .  S
Zr1005     O1009   2.439       .  S
Zr1005     O1010   2.407       .  S
O1006      C1011   1.284       .  A
O1007      H1024   0.990       .  S
O1007      H1039   0.990       .  S
O1008      H1025   0.991       .  S
O1009      H1029   0.990       .  S
O1009      H1038   0.989       .  S
C1011      C1058   1.479       .  S
O1012      H1031   0.990       .  S
O1012      H1035   0.991       .  S
O1013      H1027   0.990       .  S
O1013      H1034   0.990       .  S
O1015      C1018   1.287       .  A
O1016      H1026   0.990       .  S
O1017      H1030   0.991       .  S
C1018      C1082   1.486       .  S
C1041      C1042   1.348       .  D
C1041      H1043   1.088       .  S
C1042      H1044   1.086       .  S
C1045      C1046   1.347       .  D
C1045      H1047   1.088       .  S
C1046      H1048   1.087       .  S
C1049      C1050   1.357       .  D
C1049      H1051   1.086       .  S
C1050      H1052   1.088       .  S
C1053      C1054   1.346       .  D
C1053      H1055   1.080       .  S
C1054      H1056   1.089       .  S
C1057      C1058   1.353       .  D
C1057      H1059   1.087       .  S
C1058      H1060   1.087       .  S
C1061      C1062   1.349       .  D
C1061      H1063   1.088       .  S
C1065      C2602   1.353   1_655  D
C1065      H1067   1.087       .  S
C1066      C2601   1.350       .  D
C1066      H1068   1.084       .  S
C1069      C1070   1.342       .  D
C1069      H1071   1.088       .  S
C1070      H1072   1.086       .  S
C1073      C1074   1.348       .  D
C1073      H1075   1.083       .  S
C1074      C2310   1.528       .  S
C1074      H2612   1.087       .  S
H1076      C2610   1.088       .  S
C1077      C1078   1.352       .  D
C1077      H1079   1.088       .  S
C1078      H1080   1.087       .  S
C1081      C2309   1.533   1_455  S
C1085      C1086   1.346       .  D
C1086      H1088   1.088       .  S
C1089      C1090   1.340       .  D
C1090      C1156   1.536   1_554  S
C1090      H1092   1.087       .  S
C1093      C1094   1.344       .  D
C1093      H1095   1.082       .  S
C1094      H1096   1.089       .  S
C1097      C1482   1.343       .  D
C1097      H1483   1.088       .  S
C1098      C1481   1.341   1_554  D
C1098      H1100   1.086       .  S
H1099      C1481   1.087       .  S
C1101      C1102   1.358       .  D
C1101      H1103   1.087       .  S
C1102      H1104   1.087       .  S
C1105      C1155   1.530   1_554  S
C1105      C1106   1.345       .  D
C1105      H1491   1.085   1_554  S
C1106      C2310   1.532       .  S
C1106      H1108   1.088       .  S
H1107      C1489   1.087       .  S
C1109      C1110   1.354       .  D
C1109      H1111   1.087       .  S
C1110      H1112   1.083       .  S
C1113      C1498   1.345       .  D
C1113      H1499   1.087       .  S
C1114      C1497   1.346   1_554  D
C1114      H1500   1.083       .  S
H1115      C1497   1.086       .  S
H1116      C1498   1.086       .  S
C1117      C1118   1.350       .  D
C1117      H1503   1.081       .  S
C1118      H1120   1.085       .  S
H1119      C1501   1.086       .  S
C1121      C1122   1.357       .  D
C1121      H1123   1.087       .  S
C1122      H1124   1.087       .  S
C1125      C1126   1.350       .  D
C1125      H1127   1.088       .  S
C1126      H1128   1.086       .  S
C1129      C1130   1.344       .  D
C1129      H1131   1.088       .  S
C1130      H1132   1.087       .  S
C1133      C1134   1.355       .  D
C1133      H1135   1.087       .  S
C1134      H1136   1.088       .  S
C1137      C1138   1.345       .  D
C1137      H1139   1.087       .  S
C1141      C1142   1.350       .  D
C1141      H1143   1.088       .  S
C1142      H1144   1.087       .  S
C1145      C1146   1.342       .  D
C1145      H1147   1.088       .  S
C1146      H1148   1.087       .  S
C1149      C1150   1.347       .  D
C1149      H1151   1.089       .  S
C1150      H1152   1.086   1_565  S
C1153      C1521   1.552       .  S
C1153      C1526   1.543       .  S
C1153      C1529   1.541       .  S
C1153      C1533   1.539       .  S
C1154      C1505   1.542       .  S
C1154      C1509   1.531       .  S
C1154      C1513   1.525       .  S
C1154      C1517   1.541       .  S
C1155      C1493   1.516       .  S
C1155      C1497   1.528       .  S
C1155      C1502   1.517       .  S
C1156      C1478   1.524       .  S
C1156      C1481   1.524       .  S
C1156      C1485   1.531       .  S
C1157      C1462   1.531       .  S
C1157      C3001   1.542       .  S
C1157      C1470   1.525       .  S
C1158      C1449   1.532       .  S
C1158      C1453   1.533   1_655  S
C1158      C2994   1.537       .  S
C1158      C3026   1.541       .  S
C1159      C1438   1.521       .  S
C1159      C1441   1.535       .  S
C1159      C1445   1.519       .  S
C1160      C1425   1.528       .  S
C1160      C1429   1.528       .  S
C1160      C1433   1.542       .  S
C1160      C1506   1.543       .  S
Zr1161     O1162   2.441       .  S
Zr1161     O1163   2.434       .  S
Zr1161     O1164   2.477       .  S
Zr1161     O1167   2.439       .  S
Zr1161     O1169   2.381       .  S
Zr1161     O1171   2.400       .  S
O1162      H1218   0.990       .  S
O1162      H1226   0.990       .  S
O1163      C1183   1.283       .  A
O1164      C1185   1.293       .  A
O1165     Zr1175   2.428       .  S
O1165      C1184   1.282       .  A
O1166     Zr2710   2.427       .  S
O1166      C1185   1.282       .  A
O1168     Zr1176   2.406       .  S
O1169     Zr2710   2.388       .  S
O1170     Zr1175   2.383       .  S
O1170     Zr1176   2.371       .  S
O1170      H1205   0.966       .  S
O1171     Zr2710   2.402       .  S
O1171      H1208   0.965   1_565  S
O1172     Zr1175   2.390   1_545  S
Zr1173     O2734   2.440   1_545  S
Zr1173     O1956   2.463       .  S
Zr1173     O1179   2.401   1_545  S
Zr1173     O2716   2.407   1_545  S
Zr1174     O1186   2.435       .  S
Zr1174     O2702   2.447       .  S
Zr1174     O1187   2.438   1_565  S
Zr1174     O2705   2.396   1_455  S
Zr1174     O2707   2.391   1_465  S
Zr1174     O1565   2.396   1_565  S
Zr1175     O1199   2.439       .  S
Zr1175     O1201   2.418   1_565  S
Zr1175     O1179   2.397       .  S
Zr1176     O1202   2.435       .  S
Zr1176     O2739   2.435       .  S
Zr1176     O2714   2.439       .  S
Zr1176     O1179   2.389       .  S
Zr1176     O2716   2.388       .  S
O1177      H1214   0.990       .  S
O1178     Zr2712   2.440   1_455  S
O1178      H1209   0.990       .  S
O1180     Zr2709   2.412   1_565  S
O1180     Zr2712   2.397   1_455  S
O1180      H1206   0.965       .  S
O1181     Zr1558   2.391       .  S
O1181     Zr1191   2.381       .  S
O1182     Zr1191   2.380       .  S
O1182      H1207   0.966       .  S
C1183      C1501   1.466       .  S
C1184      C1482   1.479       .  S
C1185      C1530   1.488       .  S
O1186      H1222   0.990       .  S
O1188     Zr1941   2.428       .  S
O1190      H1219   0.990       .  S
Zr1191     O1195   2.440       .  S
Zr1191     O1196   2.413       .  S
O1192      C1197   1.280       .  A
O1193      H1210   0.990       .  S
O1193      H2761   0.990       .  S
O1194      H1211   0.990       .  S
O1195      H1215   0.990       .  S
O1195      H1224   0.989       .  S
O1196      C1197   1.280       .  A
C1197      C1457   1.468       .  S
O1198     Zr2709   2.444       .  S
O1198      H1217   0.991   1_545  S
O1198      H1221   0.990       .  S
O1199      H1213   0.990       .  S
O1199      H1220   0.990       .  S
O1200      C1204   1.285       .  A
O1202      H1212   0.990       .  S
O1203     Zr2712   2.438   1_455  S
O1203      H1216   0.990       .  S
C1204      C1469   1.476       .  S
H1225      O2729   0.990       .  S
Zr1227     O1228   2.441       .  S
Zr1227     O1229   2.437       .  S
Zr1227     O1230   2.448       .  S
Zr1227     O1233   2.427       .  S
Zr1227     O1235   2.378       .  S
Zr1227     O1236   2.387       .  S
Zr1227     O1237   2.403       .  S
Zr1227     O1238   2.406       .  S
O1228      H1284   0.990       .  S
O1228      H1292   0.990       .  S
O1229      C1249   1.283       .  A
O1230      C1251   1.288       .  A
O1231     Zr2777   2.466       .  S
O1231      C1250   1.289       .  A
O1232     Zr1240   2.433       .  S
O1232      C1251   1.282       .  A
O1233      C1250   1.284       .  A
O1234     Zr1242   2.385       .  S
O1234      C1249   1.277       .  A
O1235     Zr1240   2.389       .  S
O1235     Zr1242   2.385       .  S
O1236     Zr2777   2.394       .  S
O1236     Zr1242   2.376       .  S
O1236      H1271   0.966       .  S
O1237     Zr1240   2.401       .  S
O1237     Zr1257   2.389       .  S
O1237      H1274   0.965       .  S
O1238     Zr2777   2.397       .  S
O1238     Zr1257   2.399       .  S
Zr1239     O1264   2.442       .  S
Zr1239     O1258   2.448       .  S
Zr1239     O1266   2.440       .  S
Zr1239     O2790   2.429   1_455  S
Zr1239     O1245   2.394       .  S
Zr1239     O2782   2.412   1_455  S
Zr1239     O2783   2.377   1_455  S
Zr1239     O2784   2.381   1_455  S
Zr1240     O1259   2.437       .  S
Zr1240     O1252   2.436       .  S
Zr1240     O1253   2.428       .  S
Zr1240     O1246   2.399       .  S
Zr1240     O1247   2.400       .  S
Zr1241     O1243   2.435       .  S
Zr1241     O1265   2.439       .  S
Zr1241     O2767   2.421   1_455  S
Zr1241     O1267   2.426       .  S
Zr1241     O2772   2.397   1_455  S
Zr1241     O2774   2.394   1_455  S
Zr1241     O1245   2.385       .  S
Zr1241     O2784   2.392   1_455  S
Zr1242     O2804   2.440       .  S
Zr1242     O2805   2.437       .  S
Zr1242     O1244   2.438       .  S
Zr1242     O2781   2.377       .  S
Zr1242     O1246   2.380       .  S
O1243      H1280   0.990       .  S
O1244      H1275   0.990       .  S
O1244      H1289   0.990       .  S
O1245     Zr2778   2.386   1_455  S
O1246     Zr2775   2.399       .  S
O1246      H1272   0.965       .  S
O1247     Zr2775   2.381       .  S
O1247     Zr1257   2.379       .  S
O1248     Zr2775   2.390       .  S
O1248     Zr2777   2.404       .  S
O1248     Zr1257   2.381       .  S
O1248      H2809   0.966       .  S
C1249      C1494   1.466       .  S
C1250      C1525   1.485       .  S
C1251      C1510   1.478       .  S
O1252      H1288   0.990       .  S
O1253      C1255   1.283       .  A
O1254     Zr2775   2.447       .  S
O1254      C1255   1.287       .  A
C1255      C1461   1.476       .  S
O1256     Zr1257   2.435       .  S
O1256      H1285   0.990       .  S
Zr1257     O1260   2.437       .  S
Zr1257     O1261   2.439       .  S
Zr1257     O1262   2.419       .  S
O1258      C2799   1.285   1_455  A
O1259      H1276   0.990       .  S
O1259      H1291   0.990       .  S
O1260      H1277   0.990       .  S
O1261      H1281   0.990       .  S
O1261      H1290   0.989       .  S
O1262      C1263   1.280       .  A
C1263      O2794   1.281       .  A
C1263      C1450   1.471       .  S
O1264      H1283   0.990       .  S
O1264      H1287   0.990       .  S
O1265      H1279   0.990       .  S
O1265      H1286   0.990       .  S
O1266      C1270   1.287       .  A
O1267      C1270   1.281       .  A
O1268     Zr2778   2.435   1_455  S
O1268      H1278   0.990       .  S
O1269     Zr2778   2.438   1_455  S
O1269      H1282   0.990       .  S
C1270      C1426   1.475       .  S
H1273      O2784   0.965   1_455  S
Zr1293     O1294   2.442       .  S
Zr1293     O1295   2.436       .  S
Zr1293     O1296   2.440       .  S
Zr1293     O1299   2.419       .  S
Zr1293     O1301   2.378       .  S
Zr1293     O1303   2.404       .  S
O1294      H1350   0.990       .  S
O1294      H1358   0.990       .  S
O1295      C1315   1.282       .  A
O1296      C1317   1.286       .  A
O1297     Zr1307   2.431       .  S
O1297      C1316   1.283       .  A
O1298     Zr1306   2.423       .  S
O1298      C1317   1.281       .  A
O1300     Zr1308   2.418       .  S
O1301     Zr1306   2.391       .  S
O1302     Zr1307   2.390       .  S
O1302     Zr1308   2.374       .  S
O1302      H1337   0.966       .  S
O1303     Zr1306   2.399       .  S
O1303      H1340   0.965       .  S
O1304     Zr1307   2.393       .  S
O1304     Zr1323   2.382       .  S
Zr1305     O1330   2.442       .  S
Zr1305     O1324   2.435       .  S
Zr1305     O1332   2.446       .  S
Zr1305     O1320   2.448       .  S
Zr1305     O1311   2.407       .  S
Zr1305     O1312   2.404       .  S
Zr1305     O1313   2.381       .  S
Zr1305     O1314   2.392       .  S
Zr1306     O1325   2.436       .  S
Zr1306     O1318   2.435       .  S
Zr1306     O1319   2.418       .  S
Zr1307     O1309   2.439       .  S
Zr1307     O1331   2.438       .  S
Zr1307     O1333   2.419       .  S
Zr1307     O1311   2.396       .  S
Zr1307     O1314   2.397       .  S
Zr1308     O1334   2.438       .  S
Zr1308     O1335   2.436       .  S
Zr1308     O1310   2.436       .  S
Zr1308     O1311   2.392       .  S
Zr1308     O1312   2.396       .  S
O1309      H1346   0.990       .  S
O1310      H1341   0.990       .  S
O1312      H1338   0.966       .  S
O1313     Zr1323   2.379       .  S
O1314     Zr1323   2.374       .  S
O1314      H1339   0.966       .  S
C1315      C1477   1.480       .  S
C1316      C1498   1.484       .  S
C1317      C1514   1.475       .  S
O1318      H1354   0.990       .  S
O1320      C1321   1.289       .  A
C1321      C1454   1.485       .  S
O1322      H1351   0.990       .  S
Zr1323     O1327   2.439       .  S
Zr1323     O1328   2.391       .  S
O1324      C1329   1.282       .  A
O1325      H1342   0.989       .  S
O1325      H1357   0.990       .  S
O1326      H1343   0.990       .  S
O1327      H1347   0.990       .  S
O1327      H1356   0.990       .  S
O1328      C1329   1.278       .  A
C1329      C1437   1.476       .  S
O1330      H1349   0.991       .  S
O1330      H1353   0.990       .  S
O1331      H1345   0.990       .  S
O1331      H1352   0.990       .  S
O1332      C1336   1.287       .  A
O1333      C1336   1.280       .  A
O1334      H1344   0.990       .  S
O1335      H1348   0.990       .  S
C1336      C1430   1.474       .  S
Zr1359     O1360   2.443       .  S
Zr1359     O1361   2.442       .  S
Zr1359     O1362   2.471       .  S
Zr1359     O1365   2.434       .  S
Zr1359     O1367   2.382       .  S
Zr1359     O1368   2.386       .  S
Zr1359     O1369   2.405       .  S
Zr1359     O1370   2.409       .  S
O1360      H1416   0.991       .  S
O1360      H1424   0.990       .  S
O1361      C1381   1.285       .  A
O1362      C1383   1.291       .  A
O1363     Zr1373   2.454       .  S
O1363      C1382   1.287       .  A
O1364      C1383   1.285   1_545  A
O1365      C1382   1.285       .  A
O1366     Zr1374   2.414       .  S
O1366      C1381   1.279       .  A
O1367     Zr1374   2.392       .  S
O1368     Zr1373   2.394       .  S
O1368     Zr1374   2.371       .  S
O1368      H1403   0.966       .  S
O1369     Zr1389   2.383       .  S
O1369      H1406   0.964       .  S
O1370     Zr1373   2.397       .  S
O1370     Zr1389   2.390       .  S
Zr1371     O1396   2.443       .  S
Zr1371     O1390   2.461       .  S
Zr1371     O1398   2.460       .  S
Zr1371     O1386   2.446       .  S
Zr1371     O1378   2.412       .  S
Zr1371     O1379   2.377       .  S
Zr1372     O1391   2.436       .  S
Zr1372     O1384   2.435       .  S
Zr1372     O1385   2.450       .  S
Zr1372     O1378   2.392       .  S
Zr1372     O1379   2.393       .  S
Zr1373     O1375   2.434       .  S
Zr1373     O1397   2.447       .  S
Zr1373     O1399   2.441       .  S
Zr1373     O1377   2.405       .  S
Zr1373     O1380   2.399       .  S
Zr1374     O1400   2.437       .  S
Zr1374     O1377   2.389       .  S
O1375      H1412   0.990       .  S
O1376      H1407   0.990       .  S
O1376      H1421   0.990       .  S
O1378      H1404   0.965       .  S
O1380     Zr1389   2.377       .  S
O1380      H1405   0.966       .  S
C1381      C1486   1.475       .  S
C1382      C1518   1.482       .  S
C1383      C1534   1.488       .  S
O1384      H1420   0.990       .  S
O1385      C1387   1.286       .  A
O1386      C1387   1.287       .  A
C1387      C1434   1.483       .  S
O1388     Zr1389   2.440       .  S
O1388      H1417   0.990       .  S
Zr1389     O1392   2.437       .  S
Zr1389     O1393   2.441       .  S
Zr1389     O1394   2.406       .  S
O1390      C1395   1.289       .  A
O1391      H1408   0.990       .  S
O1391      H1423   0.990       .  S
O1392      H1409   0.990       .  S
O1393      H1413   0.990       .  S
O1393      H1422   0.990       .  S
C1395      C1442   1.475       .  S
O1396      H1415   0.990       .  S
O1396      H1419   0.991       .  S
O1397      H1411   0.990       .  S
O1397      H1418   0.990       .  S
O1399      C1402   1.284       .  A
O1400      H1410   0.990       .  S
O1401      H1414   0.990       .  S
C1402      C1466   1.483       .  S
C1425      C1426   1.344       .  D
C1425      H1427   1.088       .  S
C1426      H1428   1.086       .  S
C1429      C1430   1.343       .  D
C1429      H1431   1.088       .  S
C1430      H1432   1.087       .  S
C1433      C1434   1.359       .  D
C1433      H1435   1.086       .  S
C1434      H1436   1.088       .  S
C1437      C1438   1.350       .  D
C1437      H1439   1.081       .  S
C1438      H1440   1.086       .  S
C1441      C1442   1.361       .  D
C1441      H1443   1.087       .  S
C1442      H1444   1.083       .  S
C1445      C1446   1.341       .  D
C1445      H1447   1.088       .  S
C1449      C2986   1.356       .  D
C1449      H1451   1.087       .  S
C1450      C2985   1.350       .  D
C1450      H1452   1.087       .  S
C1453      C1454   1.344       .  D
C1453      H1455   1.088       .  S
C1454      H1456   1.085       .  S
C1457      C1458   1.347       .  D
C1457      H1459   1.079       .  S
C1458      C2694   1.529       .  S
C1458      H2996   1.088       .  S
H1460      C2994   1.087       .  S
C1461      C1462   1.354       .  D
C1461      H1463   1.087       .  S
C1462      H1464   1.087       .  S
C1465      C2693   1.528   1_455  S
C1469      C1470   1.346       .  D
C1470      H1472   1.087       .  S
C1473      C1474   1.343       .  D
C1474      H1476   1.089       .  S
C1477      C1478   1.349       .  D
C1477      H1479   1.082       .  S
C1478      H1480   1.086   1_556  S
C1482      H1484   1.086       .  S
C1485      C1486   1.354       .  D
C1485      H1487   1.087       .  S
C1486      H1488   1.083       .  S
C1489      C1490   1.343       .  D
C1490      C2694   1.536       .  S
C1490      H1492   1.088       .  S
C1493      C1494   1.349       .  D
C1493      H1495   1.089       .  S
C1494      H1496   1.083       .  S
C1501      C1502   1.350       .  D
C1502      H1504   1.087   1_556  S
C1505      C1506   1.350       .  D
C1505      H1507   1.087       .  S
C1506      H1508   1.087       .  S
C1509      C1510   1.346       .  D
C1509      H1511   1.089       .  S
C1510      H1512   1.086       .  S
C1513      C1514   1.345       .  D
C1513      H1515   1.088       .  S
C1514      H1516   1.087       .  S
C1517      C1518   1.356       .  D
C1517      H1519   1.086       .  S
C1518      H1520   1.088       .  S
C1521      C1522   1.362       .  D
C1521      H1523   1.087       .  S
C1525      C1526   1.354       .  D
C1525      H1527   1.088       .  S
C1526      H1528   1.086       .  S
C1529      C1530   1.346       .  D
C1529      H1531   1.088       .  S
C1530      H1532   1.086       .  S
C1533      C1534   1.351       .  D
C1533      H1535   1.088       .  S
C1534      H1536   1.086   1_565  S
C1537      C1905   1.538       .  S
C1537      C1910   1.546       .  S
C1537      C1913   1.527       .  S
C1537      C1917   1.539       .  S
C1538      C1889   1.537       .  S
C1538      C1893   1.533       .  S
C1538      C1897   1.526       .  S
C1538      C1901   1.540       .  S
C1539      C2257   1.542       .  S
C1539      C1877   1.519       .  S
C1539      C1881   1.542       .  S
C1539      C1886   1.535       .  S
C1540      C2242   1.539       .  S
C1540      C1862   1.531       .  S
C1540      C1865   1.521       .  S
C1540      C1869   1.533       .  S
C1541      C1846   1.546       .  S
C1541      C1854   1.529       .  S
C1541      C2674   1.545   1_545  S
C1542      C1833   1.538       .  S
C1542      C1837   1.530       .  S
C1543      C1822   1.517       .  S
C1543      C1825   1.538   1_545  S
C1543      C1829   1.511       .  S
C1543      C2625   1.529   1_545  S
C1544      C1809   1.532       .  S
C1544      C1813   1.526       .  S
C1544      C1817   1.542       .  S
C1544      C1890   1.537       .  S
Zr1545     O1546   2.443       .  S
Zr1545     O1547   2.443       .  S
Zr1545     O1548   2.435       .  S
Zr1545     O1551   2.427       .  S
Zr1545     O1553   2.378       .  S
Zr1545     O1938   2.376       .  S
Zr1545     O1555   2.412       .  S
Zr1545     O1940   2.410       .  S
O1546      H1602   0.991       .  S
O1546      H1610   0.990       .  S
O1547      C1567   1.284       .  A
O1548      C1569   1.284       .  A
O1549     Zr1559   2.449       .  S
O1549      C1568   1.287       .  A
O1550      C1569   1.284   1_455  A
O1551      C1952   1.284       .  A
O1552     Zr1560   2.397       .  S
O1552      C1951   1.277   1_554  A
O1553     Zr1944   2.391       .  S
O1554     Zr1929   2.384   1_554  S
O1554     Zr1559   2.397       .  S
O1554     Zr1560   2.379       .  S
O1554      H1589   0.966       .  S
O1555     Zr2727   2.398       .  S
O1555      H1592   0.965       .  S
O1556     Zr1929   2.404   1_554  S
O1556     Zr1559   2.393       .  S
O1556     Zr2343   2.390   1_554  S
Zr1557     O2344   2.441       .  S
Zr1557     O2352   2.419       .  S
Zr1557     O1563   2.399       .  S
Zr1557     O2333   2.375       .  S
Zr1557     O2334   2.388       .  S
Zr1558     O2345   2.435       .  S
Zr1558     O1570   2.435       .  S
Zr1558     O1571   2.426       .  S
Zr1558     O1948   2.405       .  S
Zr1559     O2329   2.438       .  S
Zr1559     O1583   2.438       .  S
Zr1559     O1585   2.446       .  S
Zr1559     O1563   2.394       .  S
Zr1559     O2334   2.396       .  S
Zr1560     O1586   2.438       .  S
Zr1560     O1937   2.387   1_554  S
Zr1560     O1563   2.384       .  S
O1561     Zr2327   2.437   1_545  S
O1561      H1598   0.990       .  S
O1562      H1593   0.990       .  S
O1562      H1991   0.990   1_554  S
O1564     Zr1942   2.404   1_554  S
O1564      H1590   0.966       .  S
O1565     Zr2325   2.387   1_556  S
O1565     Zr1575   2.383   1_455  S
O1566     Zr2325   2.382   1_655  S
O1566     Zr2327   2.389   1_545  S
O1566     Zr1575   2.379   1_554  S
O1566      H1591   0.967       .  S
C1567      O1936   1.281       .  A
C1567      C1885   1.480       .  S
C1568      O1935   1.287   1_554  A
C1568      C1866   1.489       .  S
C1569      C1914   1.480       .  S
O1570      H1606   0.990       .  S
O1571      C1957   1.282       .  A
O1572      C2341   1.277       .  A
C1573      O1955   1.281   1_554  A
C1573      O2340   1.293       .  A
C1573      C2598   1.486       .  S
O1574     Zr1959   2.435       .  S
O1574      H1603   0.990       .  S
Zr1575     O1958   2.437       .  S
Zr1575     O1962   2.440       .  S
Zr1575     O1579   2.440   1_556  S
Zr1575     O1580   2.417   1_556  S
Zr1575     O2707   2.388       .  S
Zr1575     O2324   2.397   1_556  S
O1576     Zr2325   2.428       .  S
O1576      C1581   1.282   1_455  A
O1577     Zr2326   2.439   1_545  S
O1577      H1594   0.990       .  S
O1578     Zr1959   2.435       .  S
O1578      H1595   0.990       .  S
O1579      H1599   0.990       .  S
O1579      H1608   0.990       .  S
O1580      C1581   1.281       .  A
C1581      C1841   1.472   1_655  S
O1582      H1601   0.990       .  S
O1582      H1605   0.990       .  S
O1583      H1597   0.990       .  S
O1583      H1604   0.990       .  S
O1584     Zr2325   2.447   1_655  S
O1584      C1588   1.287       .  A
O1585      C2356   1.287       .  A
O1586      H1596   0.990       .  S
O1587      H1600   0.990       .  S
C1588      O2353   1.280   1_545  A
C1588      C1853   1.476       .  S
H1607      O1946   0.990       .  S
Zr1611     O1612   2.443       .  S
Zr1611     O1613   2.414       .  S
Zr1611     O1614   2.444       .  S
Zr1611     O1617   2.438       .  S
Zr1611     O1619   2.385       .  S
Zr1611     O1620   2.390       .  S
Zr1611     O1621   2.401       .  S
Zr1611     O1622   2.394       .  S
O1612      H1668   0.990       .  S
O1612      H1676   0.990       .  S
O1613      C1633   1.278       .  A
O1614      C1635   1.287       .  A
O1615      C1634   1.290       .  A
O1616     Zr1624   2.454       .  S
O1616      C1635   1.287       .  A
O1617      C1634   1.286       .  A
O1618     Zr1626   2.405       .  S
O1618      C1633   1.280       .  A
O1619     Zr1624   2.398       .  S
O1619     Zr1626   2.382       .  S
O1620     Zr1626   2.379       .  S
O1620      H1655   0.966       .  S
O1621     Zr1624   2.412       .  S
O1621     Zr1641   2.373       .  S
O1621      H1658   0.965       .  S
O1622     Zr1641   2.376       .  S
Zr1623     O1648   2.444       .  S
Zr1623     O1642   2.429       .  S
Zr1623     O1650   2.430       .  S
Zr1623     O1629   2.399       .  S
Zr1624     O1643   2.437       .  S
Zr1624     O1636   2.438       .  S
Zr1624     O1637   2.453       .  S
Zr1624     O1630   2.405       .  S
Zr1624     O1631   2.398       .  S
Zr1625     O1627   2.434       .  S
Zr1625     O1649   2.442       .  S
Zr1625     O1651   2.460       .  S
Zr1625     O1629   2.404       .  S
Zr1626     O1628   2.439       .  S
Zr1626     O1630   2.383       .  S
O1627      H1664   0.990       .  S
O1628      H1659   0.990       .  S
O1628      H1673   0.990       .  S
O1630      H1656   0.964       .  S
O1631     Zr1641   2.392       .  S
O1632     Zr1641   2.383       .  S
C1633      C1878   1.459       .  S
C1634      C1909   1.490       .  S
C1635      C1894   1.482       .  S
O1636      H1672   0.990       .  S
O1637      C1639   1.287       .  A
O1638      C1639   1.291   1_455  A
C1639      C1845   1.492       .  S
O1640     Zr1641   2.436       .  S
O1640      H1669   0.990       .  S
Zr1641     O1644   2.435       .  S
Zr1641     O1645   2.438       .  S
Zr1641     O1646   2.371       .  S
O1643      H1660   0.990       .  S
O1643      H1675   0.990       .  S
O1644      H1661   0.990       .  S
O1645      H1665   0.990       .  S
O1645      H1674   0.990       .  S
O1646      C1647   1.269       .  A
C1647      C1834   1.459       .  S
O1648      H1667   0.990       .  S
O1648      H1671   0.990       .  S
O1649      H1663   0.990       .  S
O1649      H1670   0.990       .  S
O1650      C1654   1.285       .  A
O1651      C1654   1.289       .  A
O1652      H1662   0.990       .  S
O1653      H1666   0.990       .  S
C1654      C1810   1.485       .  S
Zr1677     O1678   2.443       .  S
Zr1677     O1679   2.450       .  S
Zr1677     O1680   2.453       .  S
Zr1677     O1683   2.468       .  S
Zr1677     O1685   2.394       .  S
Zr1677     O2070   2.384       .  S
Zr1677     O1687   2.417       .  S
Zr1677     O2072   2.401       .  S
O1678      H1734   0.990       .  S
O1678      H1742   0.991       .  S
O1679      C1699   1.286       .  A
O1680      C1701   1.288       .  A
O1681     Zr1691   2.443       .  S
O1681      C1700   1.284       .  A
O1682     Zr1690   2.425       .  S
O1682      C1701   1.281       .  A
O1683      C2084   1.292       .  A
O1684     Zr1692   2.392       .  S
O1684      C2083   1.278   1_554  A
O1685     Zr1690   2.406       .  S
O1685     Zr2076   2.388       .  S
O1686     Zr2061   2.384   1_554  S
O1686     Zr1691   2.399       .  S
O1686     Zr1692   2.387       .  S
O1686      H1721   0.966       .  S
O1687     Zr1690   2.405       .  S
O1687     Zr2091   2.382       .  S
O1687      H1724   0.965       .  S
O1688     Zr2061   2.403   1_554  S
O1688     Zr1691   2.385       .  S
O1688     Zr1707   2.386   1_554  S
Zr1689     O1714   2.442       .  S
Zr1689     O1708   2.417       .  S
Zr1689     O1716   2.438       .  S
Zr1689     O1704   2.446       .  S
Zr1689     O1695   2.388       .  S
Zr1689     O1696   2.395       .  S
Zr1689     O1697   2.380   1_554  S
Zr1689     O1698   2.390       .  S
Zr1690     O1709   2.438       .  S
Zr1690     O1702   2.434       .  S
Zr1690     O1703   2.438       .  S
Zr1690     O2080   2.400       .  S
Zr1690     O2081   2.385       .  S
Zr1691     O1693   2.437       .  S
Zr1691     O1715   2.438       .  S
Zr1691     O1717   2.422       .  S
Zr1691     O1695   2.397       .  S
Zr1691     O1698   2.396       .  S
Zr1692     O1718   2.435       .  S
Zr1692     O1719   2.436       .  S
Zr1692     O1694   2.440       .  S
Zr1692     O2069   2.381   1_554  S
Zr1692     O1695   2.375       .  S
Zr1692     O1696   2.388       .  S
O1693      H1730   0.989       .  S
O1694      H1725   0.990   1_554  S
O1694      H2123   0.990       .  S
O1696     Zr2074   2.402   1_554  S
O1696      H1722   0.965       .  S
O1697     Zr2074   2.392       .  S
O1697     Zr1707   2.378       .  S
O1698     Zr1707   2.377   1_554  S
O1698      H1723   0.966       .  S
C1699      O2068   1.279       .  A
C1699      C1861   1.478       .  S
C1700      O2067   1.286   1_554  A
C1700      C1882   1.488       .  S
C1701      C1898   1.476       .  S
O1702      H1738   0.989       .  S
O1703      C2089   1.284       .  A
O1704      C1705   1.287       .  A
C1705      O2087   1.283   1_554  A
C1705      C1838   1.484       .  S
O1706     Zr2091   2.435       .  S
O1706      H1735   0.990       .  S
Zr1707     O2090   2.439       .  S
Zr1707     O2094   2.437       .  S
Zr1707     O1711   2.440   1_556  S
Zr1707     O1712   2.403   1_556  S
Zr1707     O2071   2.395       .  S
O1708      C1713   1.280       .  A
O1709      H1726   0.990       .  S
O1709      H1741   0.990       .  S
O1710     Zr2091   2.437       .  S
O1710      H1727   0.990       .  S
O1711      H1731   0.990       .  S
O1711      H1740   0.990       .  S
O1712      C1713   1.279       .  A
C1713      C1821   1.462       .  S
O1714      H1733   0.991       .  S
O1714      H1737   0.990       .  S
O1715      H1729   0.990       .  S
O1715      H1736   0.990       .  S
O1716      C1720   1.287       .  A
O1717      C1720   1.282       .  A
O1718      H1728   0.990       .  S
O1719      H1732   0.990       .  S
C1720      C1814   1.472       .  S
H1739      O2078   0.990       .  S
Zr1743     O1744   2.445       .  S
Zr1743     O1745   2.441       .  S
Zr1743     O1746   2.438       .  S
Zr1743     O1749   2.428       .  S
Zr1743     O1751   2.383       .  S
Zr1743     O1752   2.379       .  S
Zr1743     O1753   2.407       .  S
Zr1743     O1754   2.403       .  S
O1744      H1800   0.991       .  S
O1744      H1808   0.991       .  S
O1745      C1765   1.284       .  A
O1746      C1767   1.284       .  A
O1747     Zr1757   2.456       .  S
O1747      C1766   1.287       .  A
O1748     Zr2524   2.469       .  S
O1748      C1767   1.290       .  A
O1749      C1766   1.283       .  A
O1750     Zr1758   2.402       .  S
O1750      C1765   1.277       .  A
O1751     Zr2524   2.407       .  S
O1751     Zr1758   2.390       .  S
O1752     Zr1757   2.402       .  S
O1752     Zr1758   2.380       .  S
O1752      H1787   0.966       .  S
O1753     Zr2524   2.402       .  S
O1753     Zr1773   2.390       .  S
O1753      H1790   0.965       .  S
O1754     Zr1757   2.396       .  S
O1754     Zr1773   2.393       .  S
Zr1755     O1780   2.444       .  S
Zr1755     O1774   2.457       .  S
Zr1755     O1782   2.448   1_545  S
Zr1755     O1770   2.447       .  S
Zr1755     O2529   2.404   1_545  S
Zr1755     O1762   2.410       .  S
Zr1755     O1763   2.380       .  S
Zr1755     O2532   2.386   1_545  S
Zr1756     O1775   2.438       .  S
Zr1756     O1768   2.434       .  S
Zr1756     O2516   2.443       .  S
Zr1756     O1769   2.456       .  S
Zr1756     O2519   2.408   1_545  S
Zr1756     O2521   2.410   1_545  S
Zr1756     O1762   2.398       .  S
Zr1756     O1763   2.405       .  S
Zr1757     O1759   2.437       .  S
Zr1757     O1781   2.440       .  S
Zr1757     O1783   2.452       .  S
Zr1757     O1761   2.397       .  S
Zr1757     O1764   2.404       .  S
Zr1758     O1784   2.437       .  S
Zr1758     O2553   2.437       .  S
Zr1758     O2528   2.435       .  S
Zr1758     O1761   2.380       .  S
Zr1758     O2530   2.391       .  S
O1759      H1796   0.990       .  S
O1760     Zr2526   2.438       .  S
O1760      H1791   0.990       .  S
O1760      H1805   0.990       .  S
O1761     Zr2523   2.394       .  S
O1762     Zr2526   2.390       .  S
O1762      H1788   0.964       .  S
O1763     Zr2541   2.390   1_545  S
O1764     Zr2523   2.392       .  S
O1764     Zr1773   2.386       .  S
O1764      H1789   0.966       .  S
C1765      C1870   1.471       .  S
C1766      C1902   1.482       .  S
C1767      C1918   1.491       .  S
O1768      H1804   0.990       .  S
O1769      C1771   1.288       .  A
O1770      C1771   1.287       .  A
C1771      C1818   1.484       .  S
O1772     Zr1773   2.438       .  S
O1772      H1801   0.990       .  S
Zr1773     O1776   2.440       .  S
Zr1773     O1777   2.443       .  S
Zr1773     O1778   2.416       .  S
Zr1773     O2531   2.386       .  S
O1774      C1779   1.287   1_545  A
O1775      H1792   0.990       .  S
O1775      H1807   0.990       .  S
O1776      H1793   0.990       .  S
O1777      H1797   0.990       .  S
O1777      H1806   0.990       .  S
O1778      C2547   1.279       .  A
C1779      O2546   1.279       .  A
C1779      C1826   1.483   1_565  S
O1780      H1799   0.990       .  S
O1780      H1803   0.991       .  S
O1781      H1795   0.990       .  S
O1781      H1802   0.990       .  S
O1782      C2554   1.287       .  A
O1783      C1786   1.287       .  A
O1784      H1794   0.990       .  S
O1785     Zr2526   2.438       .  S
O1785      H1798   0.990       .  S
C1786      O2550   1.287       .  A
C1786      C1850   1.488       .  S
C1809      C1810   1.352       .  D
C1809      H1811   1.088       .  S
C1810      H1812   1.086       .  S
C1813      C1814   1.345       .  D
C1813      H1815   1.088       .  S
C1814      H1816   1.087       .  S
C1817      C1818   1.357       .  D
C1817      H1819   1.086       .  S
C1818      H1820   1.088       .  S
C1821      C1822   1.344       .  D
C1821      H1823   1.082       .  S
C1822      H1824   1.087       .  S
C1825      C1826   1.357   1_565  D
C1825      H1827   1.087       .  S
C1826      H1828   1.085       .  S
C1829      C1830   1.330   1_545  D
C1829      H1831   1.089       .  S
C1830      C2341   1.441       .  S
C1830      H2600   1.087       .  S
H1832      C2598   1.086   1_556  S
C1833      H1835   1.087       .  S
C1834      H1836   1.088       .  S
C1837      C1838   1.347       .  D
C1837      H1839   1.087       .  S
C1838      H1840   1.086   1_554  S
C1841      C1842   1.351   1_455  D
C1841      H1843   1.085       .  S
C1845      C1846   1.361       .  D
C1845      H1847   1.087   1_655  S
C1846      H1848   1.086       .  S
C1849      C2618   1.351   1_545  D
C1849      H2619   1.088       .  S
C1850      C2617   1.354       .  D
C1850      H2620   1.086       .  S
H1851      C2617   1.088       .  S
H1852      C2618   1.086       .  S
C1853      C1854   1.345       .  D
C1853      H2623   1.087       .  S
C1854      H1856   1.088   1_645  S
H1855      C2621   1.087       .  S
C1857      C2311   1.546       .  S
C1857      C1858   1.343       .  D
C1857      H2627   1.087   1_554  S
C1858      C1924   1.547   1_554  S
C1858      H1860   1.087       .  S
H1859      C2625   1.088   1_556  S
C1861      C1862   1.354       .  D
C1861      H1863   1.081       .  S
C1862      H1864   1.087       .  S
C1865      C2250   1.341       .  D
C1865      H2251   1.088       .  S
C1866      C2249   1.351   1_554  D
C1866      H1868   1.086       .  S
H1867      C2249   1.087       .  S
C1869      C1870   1.354       .  D
C1869      H1871   1.087       .  S
C1870      H1872   1.082       .  S
C1873      C1923   1.542       .  S
C1873      C1874   1.345   1_556  D
C1873      H2259   1.088       .  S
C1874      H1876   1.087       .  S
H1875      C2257   1.089       .  S
C1877      C1878   1.344       .  D
C1877      H1879   1.089       .  S
C1878      H1880   1.084       .  S
C1881      C2266   1.342       .  D
C1881      H2267   1.088       .  S
C1882      C2265   1.349   1_554  D
C1882      H2268   1.085       .  S
H1883      C2265   1.084       .  S
H1884      C2266   1.084       .  S
C1885      C1886   1.355       .  D
C1885      H2271   1.087       .  S
C1886      H1888   1.087       .  S
H1887      C2269   1.082       .  S
C1889      C1890   1.349       .  D
C1889      H1891   1.087       .  S
C1890      H1892   1.088       .  S
C1893      C1894   1.350       .  D
C1893      H1895   1.088       .  S
C1894      H1896   1.086       .  S
C1897      C1898   1.346       .  D
C1897      H1899   1.088       .  S
C1898      H1900   1.087       .  S
C1901      C1902   1.353       .  D
C1901      H1903   1.087       .  S
C1902      H1904   1.088       .  S
C1905      C1906   1.348       .  D
C1905      H1907   1.087       .  S
C1906      C2309   1.538       .  S
C1906      H2676   1.087       .  S
H1908      C2674   1.087       .  S
C1909      C1910   1.356       .  D
C1909      H1911   1.088       .  S
C1910      H1912   1.087       .  S
C1913      C1914   1.350       .  D
C1913      H1915   1.088       .  S
C1914      H1916   1.087       .  S
C1917      C1918   1.356       .  D
C1917      H1919   1.088       .  S
C1918      H1920   1.086       .  S
C1921      C2289   1.537       .  S
C1921      C2294   1.539       .  S
C1921      C2297   1.530       .  S
C1921      C2301   1.545       .  S
C1922      C2273   1.546       .  S
C1922      C2277   1.518       .  S
C1922      C2281   1.524       .  S
C1922      C2285   1.535       .  S
C1923      C2261   1.525       .  S
C1923      C2265   1.532       .  S
C1923      C2270   1.526       .  S
C1924      C2246   1.526       .  S
C1924      C2249   1.536       .  S
C1924      C2253   1.542       .  S
C1925      C2230   1.535       .  S
C1925      C2238   1.529       .  S
C1925      C3058   1.552   1_545  S
C1926      C2217   1.527       .  S
C1926      C2221   1.537       .  S
C1927      C2206   1.524       .  S
C1927      C2209   1.539       .  S
C1927      C2213   1.539       .  S
C1927      C3009   1.550   1_545  S
C1928      C2193   1.526       .  S
C1928      C2197   1.531       .  S
C1928      C2201   1.546       .  S
C1928      C2274   1.547       .  S
Zr1929     O1930   2.443       .  S
Zr1929     O1931   2.453       .  S
Zr1929     O1932   2.455       .  S
Zr1929     O1935   2.444       .  S
Zr1929     O1937   2.383       .  S
Zr1929     O1939   2.413       .  S
O1930      H1986   0.990       .  S
O1930      H1994   0.991       .  S
O1931      C1951   1.287       .  A
O1932      C1953   1.288       .  A
O1933     Zr1943   2.411       .  S
O1933      C1952   1.278       .  A
O1934      C1953   1.281       .  A
O1936     Zr1944   2.426       .  S
O1938     Zr1943   2.387       .  S
O1938     Zr1944   2.378       .  S
O1938      H1973   0.966       .  S
O1939     Zr2343   2.395       .  S
O1939      H1976   0.966       .  S
O1940     Zr1943   2.390       .  S
O1940     Zr2727   2.406       .  S
Zr1941     O2728   2.436       .  S
Zr1941     O2736   2.463   1_455  S
Zr1941     O1947   2.402   1_455  S
Zr1941     O2717   2.384   1_455  S
Zr1941     O2718   2.381   1_455  S
Zr1942     O2729   2.438       .  S
Zr1942     O1954   2.436       .  S
Zr1942     O1955   2.422       .  S
Zr1943     O2713   2.435       .  S
Zr1943     O1967   2.439       .  S
Zr1943     O1969   2.394       .  S
Zr1943     O1947   2.394       .  S
Zr1943     O2718   2.399       .  S
Zr1944     O1970   2.436       .  S
Zr1944     O1947   2.398       .  S
O1945     Zr2711   2.435   1_545  S
O1945      H1982   0.990       .  S
O1946      H1977   0.990       .  S
O1948      H1974   0.964       .  S
O1949     Zr2709   2.374   1_655  S
O1949     Zr1959   2.385       .  S
O1950     Zr2709   2.383   1_655  S
O1950     Zr2711   2.400   1_545  S
O1950     Zr1959   2.379       .  S
O1950      H1975   0.966       .  S
C1951      C2269   1.474       .  S
C1952      C2250   1.467       .  S
C1953      C2298   1.476       .  S
O1954      H1990   0.990       .  S
O1956      C2725   1.291   1_545  A
C1957      O2724   1.282       .  A
C1957      C2982   1.456       .  S
O1958      H1987   0.990       .  S
Zr1959     O1963   2.437       .  S
Zr1959     O1964   2.406       .  S
Zr1959     O2323   2.384   1_545  S
Zr1959     O2708   2.389   1_545  S
O1960     Zr2709   2.471       .  S
O1960      C1965   1.291   1_455  A
O1961     Zr2710   2.438   1_545  S
O1961      H1978   0.991   1_545  S
O1962      H1979   0.990       .  S
O1963      H1983   0.990       .  S
O1963      H1992   0.990       .  S
O1964      C1965   1.278       .  A
C1965      C2225   1.485       .  S
O1966      H1985   0.990       .  S
O1966      H1989   0.990       .  S
O1967      H1981   0.990       .  S
O1967      H1988   0.990       .  S
O1968     Zr2709   2.434   1_655  S
O1968      C1972   1.285   1_545  A
O1969      C2740   1.275       .  A
O1970      H1980   0.990       .  S
O1971      H1984   0.990       .  S
C1972      O2737   1.284       .  A
C1972      C2237   1.478   1_565  S
Zr1995     O1996   2.442       .  S
Zr1995     O1997   2.430       .  S
Zr1995     O1998   2.412       .  S
Zr1995     O2001   2.383       .  S
Zr1995     O2003   2.371       .  S
Zr1995     O2004   2.382       .  S
Zr1995     O2005   2.393       .  S
Zr1995     O2006   2.396       .  S
O1996      H2052   0.990       .  S
O1996      H2060   0.990       .  S
O1997      C2017   1.282       .  A
O1998      C2019   1.282       .  A
O1999      C2018   1.294       .  A
O2000     Zr2008   2.441       .  S
O2000      C2019   1.283       .  A
O2001      C2018   1.275       .  A
O2002     Zr2010   2.394       .  S
O2002      C2017   1.279       .  A
O2003     Zr2008   2.387       .  S
O2003     Zr2010   2.378       .  S
O2004     Zr2010   2.379       .  S
O2004      H2039   0.966       .  S
O2005     Zr2008   2.392       .  S
O2005     Zr2025   2.389       .  S
O2005      H2042   0.966       .  S
O2006     Zr2025   2.384       .  S
Zr2007     O2032   2.442       .  S
Zr2007     O2026   2.434       .  S
Zr2007     O2034   2.453       .  S
Zr2007     O2013   2.394       .  S
Zr2008     O2027   2.438       .  S
Zr2008     O2020   2.435       .  S
Zr2008     O2021   2.408       .  S
Zr2008     O2014   2.406       .  S
Zr2008     O2015   2.399       .  S
Zr2009     O2011   2.437       .  S
Zr2009     O2033   2.438       .  S
Zr2009     O2035   2.412       .  S
Zr2009     O2013   2.389       .  S
Zr2010     O2012   2.437       .  S
Zr2010     O2014   2.382       .  S
O2011      H2048   0.990       .  S
O2012      H2043   0.990       .  S
O2012      H2057   0.990       .  S
O2014      H2040   0.965       .  S
O2015     Zr2025   2.384       .  S
O2016     Zr2025   2.379   1_455  S
C2017      C2262   1.473       .  S
C2018      C2293   1.476       .  S
C2019      C2278   1.474       .  S
O2020      H2056   0.990       .  S
O2021      C2023   1.279       .  A
O2022      C2023   1.293   1_455  A
C2023      C2229   1.483       .  S
O2024     Zr2025   2.439       .  S
O2024      H2053   0.990       .  S
Zr2025     O2028   2.435       .  S
Zr2025     O2029   2.440       .  S
Zr2025     O2030   2.387       .  S
O2027      H2044   0.990       .  S
O2027      H2059   0.990       .  S
O2028      H2045   0.989       .  S
O2029      H2049   0.990       .  S
O2029      H2058   0.990       .  S
O2030      C2031   1.277   1_655  A
C2031      C2218   1.461       .  S
O2032      H2051   0.990       .  S
O2032      H2055   0.991       .  S
O2033      H2047   0.990       .  S
O2033      H2054   0.990       .  S
O2034      C2038   1.288       .  A
O2035      C2038   1.278       .  A
O2036      H2046   0.990       .  S
O2037      H2050   0.990       .  S
C2038      C2194   1.472       .  S
Zr2061     O2062   2.443       .  S
Zr2061     O2063   2.452       .  S
Zr2061     O2064   2.440       .  S
Zr2061     O2067   2.434       .  S
Zr2061     O2069   2.383       .  S
Zr2061     O2071   2.414       .  S
O2062      H2118   0.990       .  S
O2062      H2126   0.990       .  S
O2063      C2083   1.285       .  A
O2064      C2085   1.285       .  A
O2065     Zr2075   2.419       .  S
O2065      C2084   1.280       .  A
O2066     Zr2074   2.428       .  S
O2066      C2085   1.282       .  A
O2068     Zr2076   2.405       .  S
O2069     Zr2074   2.398       .  S
O2070     Zr2075   2.393       .  S
O2070     Zr2076   2.385       .  S
O2070      H2105   0.966       .  S
O2071     Zr2074   2.401       .  S
O2071      H2108   0.965       .  S
O2072     Zr2075   2.388       .  S
O2072     Zr2091   2.386       .  S
Zr2073     O2098   2.440       .  S
Zr2073     O2092   2.428       .  S
Zr2073     O2100   2.456       .  S
Zr2073     O2088   2.448       .  S
Zr2073     O2079   2.397       .  S
Zr2073     O2080   2.404       .  S
Zr2073     O2081   2.382       .  S
Zr2073     O2082   2.391       .  S
Zr2074     O2093   2.437       .  S
Zr2074     O2086   2.436       .  S
Zr2074     O2087   2.439       .  S
Zr2075     O2077   2.436       .  S
Zr2075     O2099   2.438       .  S
Zr2075     O2101   2.416       .  S
Zr2075     O2079   2.396       .  S
Zr2075     O2082   2.393       .  S
Zr2076     O2102   2.436       .  S
Zr2076     O2103   2.436       .  S
Zr2076     O2078   2.440       .  S
Zr2076     O2079   2.389       .  S
Zr2076     O2080   2.398       .  S
O2077      H2114   0.990       .  S
O2078      H2109   0.990       .  S
O2080      H2106   0.966       .  S
O2081     Zr2091   2.371       .  S
O2082     Zr2091   2.377       .  S
O2082      H2107   0.966       .  S
C2083      C2245   1.482       .  S
C2084      C2266   1.484       .  S
C2085      C2282   1.474       .  S
O2086      H2122   0.990       .  S
O2088      C2089   1.289       .  A
C2089      C2222   1.487       .  S
O2090      H2119   0.990       .  S
Zr2091     O2095   2.437       .  S
Zr2091     O2096   2.404       .  S
O2092      C2097   1.282       .  A
O2093      H2110   0.990       .  S
O2093      H2125   0.990       .  S
O2094      H2111   0.990       .  S
O2095      H2115   0.990       .  S
O2095      H2124   0.989       .  S
O2096      C2097   1.280       .  A
C2097      C2205   1.474       .  S
O2098      H2117   0.990       .  S
O2098      H2121   0.990       .  S
O2099      H2113   0.990       .  S
O2099      H2120   0.990       .  S
O2100      C2104   1.290       .  A
O2101      C2104   1.280       .  A
O2102      H2112   0.990       .  S
O2103      H2116   0.990       .  S
C2104      C2198   1.481       .  S
Zr2127     O2128   2.442       .  S
Zr2127     O2129   2.456       .  S
Zr2127     O2130   2.484       .  S
Zr2127     O2133   2.487       .  S
Zr2127     O2135   2.393       .  S
Zr2127     O2136   2.393       .  S
Zr2127     O2137   2.417       .  S
Zr2127     O2138   2.400       .  S
O2128      H2184   0.990       .  S
O2128      H2192   0.991       .  S
O2129      C2149   1.288       .  A
O2130      C2151   1.293       .  A
O2131     Zr2141   2.413       .  S
O2131      C2150   1.279       .  A
O2132     Zr2908   2.442       .  S
O2132      C2151   1.286       .  A
O2133      C2150   1.297       .  A
O2134     Zr2142   2.429       .  S
O2134      C2149   1.283       .  A
O2135     Zr2908   2.403       .  S
O2135     Zr2142   2.383       .  S
O2136     Zr2141   2.400       .  S
O2136     Zr2142   2.384       .  S
O2136      H2171   0.966       .  S
O2137     Zr2908   2.409       .  S
O2137     Zr2157   2.393       .  S
O2137      H2174   0.964       .  S
O2138     Zr2141   2.394       .  S
O2138     Zr2157   2.379       .  S
Zr2139     O2164   2.444       .  S
Zr2139     O2158   2.444       .  S
Zr2139     O2166   2.469   1_545  S
Zr2139     O2154   2.454       .  S
Zr2139     O2913   2.401   1_545  S
Zr2139     O2146   2.408       .  S
Zr2139     O2147   2.384       .  S
Zr2139     O2916   2.392   1_545  S
Zr2140     O2159   2.437       .  S
Zr2140     O2152   2.437       .  S
Zr2140     O2900   2.446       .  S
Zr2140     O2153   2.460       .  S
Zr2140     O2903   2.402   1_545  S
Zr2140     O2905   2.409   1_545  S
Zr2140     O2146   2.401       .  S
Zr2140     O2147   2.401       .  S
Zr2141     O2143   2.436       .  S
Zr2141     O2165   2.441       .  S
Zr2141     O2167   2.427       .  S
Zr2141     O2145   2.382       .  S
Zr2141     O2148   2.401       .  S
Zr2142     O2168   2.436       .  S
Zr2142     O2937   2.439       .  S
Zr2142     O2912   2.439       .  S
Zr2142     O2145   2.394       .  S
Zr2142     O2914   2.403       .  S
O2143      H2180   0.991       .  S
O2144     Zr2910   2.438   1_545  S
O2144      H2175   0.990       .  S
O2144      H2189   0.990       .  S
O2145     Zr2907   2.404       .  S
O2146     Zr2910   2.395   1_545  S
O2146      H2172   0.965       .  S
O2147     Zr2925   2.386   1_545  S
O2148     Zr2907   2.386       .  S
O2148     Zr2157   2.383       .  S
O2148      H2173   0.966       .  S
C2149      C2254   1.488       .  S
C2150      C2286   1.494       .  S
C2151      C2302   1.494       .  S
O2152      H2188   0.990       .  S
O2153      C2155   1.288       .  A
O2154      C2155   1.289       .  A
C2155      C2202   1.492       .  S
O2156     Zr2157   2.440       .  S
O2156      H2185   0.990       .  S
Zr2157     O2160   2.434       .  S
Zr2157     O2161   2.441       .  S
Zr2157     O2162   2.409       .  S
Zr2157     O2915   2.389       .  S
O2158      C2163   1.286       .  A
O2159      H2176   0.990       .  S
O2159      H2191   0.990       .  S
O2160      H2177   0.990       .  S
O2161      H2181   0.990       .  S
O2161      H2190   0.990       .  S
O2162      C2931   1.279       .  A
C2163      O2930   1.280   1_545  A
C2163      C2210   1.477       .  S
O2164      H2183   0.990       .  S
O2164      H2187   0.991       .  S
O2165      H2179   0.990       .  S
O2165      H2186   0.990       .  S
O2166      C2938   1.291       .  A
O2167      C2170   1.281       .  A
O2168      H2178   0.990       .  S
O2169     Zr2910   2.438   1_545  S
O2169      H2182   0.990       .  S
C2170      O2934   1.291       .  A
C2170      C2234   1.484       .  S
C2193      C2194   1.344       .  D
C2193      H2195   1.088       .  S
C2194      H2196   1.087       .  S
C2197      C2198   1.342       .  D
C2197      H2199   1.088       .  S
C2198      H2200   1.087       .  S
C2201      C2202   1.360       .  D
C2201      H2203   1.086       .  S
C2202      H2204   1.087       .  S
C2205      C2206   1.349       .  D
C2205      H2207   1.081       .  S
C2206      H2208   1.086       .  S
C2209      C2210   1.356       .  D
C2209      H2211   1.087   1_545  S
C2210      H2212   1.080       .  S
C2213      C2214   1.345   1_545  D
C2213      H2215   1.084       .  S
C2214      C2725   1.487       .  S
C2214      H2984   1.084       .  S
H2216      C2982   1.086       .  S
C2217      H2219   1.088       .  S
C2218      H2220   1.081       .  S
C2221      C2222   1.345       .  D
C2221      H2223   1.088       .  S
C2222      H2224   1.086       .  S
C2225      C2226   1.363       .  D
C2225      H2227   1.084   1_655  S
C2229      C2230   1.362       .  D
C2229      H2231   1.087   1_655  S
C2230      H2232   1.087       .  S
C2233      C3002   1.348       .  D
C2233      H3003   1.088   1_565  S
C2234      C3001   1.349       .  D
C2234      H3004   1.087       .  S
H2235      C3001   1.088       .  S
H2236      C3002   1.086       .  S
C2237      C2238   1.350       .  D
C2237      H3007   1.086       .  S
C2238      H2240   1.088   1_645  S
H2239      C3005   1.087       .  S
C2241      C2695   1.541       .  S
C2241      C2242   1.349       .  D
C2241      H3011   1.088       .  S
C2242      H2244   1.088       .  S
H2243      C3009   1.087   1_545  S
C2245      C2246   1.352       .  D
C2245      H2247   1.083       .  S
C2246      H2248   1.086   1_556  S
C2250      H2252   1.087       .  S
C2253      C2254   1.356       .  D
C2253      H2255   1.087       .  S
C2254      H2256   1.082       .  S
C2257      C2258   1.343       .  D
C2258      H2260   1.089       .  S
C2261      C2262   1.351       .  D
C2261      H2263   1.087       .  S
C2262      H2264   1.083       .  S
C2269      C2270   1.355       .  D
C2270      H2272   1.087   1_556  S
C2273      C2274   1.354       .  D
C2273      H2275   1.087       .  S
C2274      H2276   1.087       .  S
C2277      C2278   1.346       .  D
C2277      H2279   1.090       .  S
C2278      H2280   1.086       .  S
C2281      C2282   1.348       .  D
C2281      H2283   1.088       .  S
C2282      H2284   1.087       .  S
C2285      C2286   1.339       .  D
C2285      H2287   1.089       .  S
C2286      H2288   1.086       .  S
C2289      C2290   1.351       .  D
C2289      H2291   1.087       .  S
C2290      C2693   1.537       .  S
C2290      H3060   1.087       .  S
H2292      C3058   1.084       .  S
C2293      C2294   1.344       .  D
C2293      H2295   1.088       .  S
C2294      H2296   1.087       .  S
C2297      C2298   1.346       .  D
C2297      H2299   1.088       .  S
C2298      H2300   1.087       .  S
C2301      C2302   1.353       .  D
C2301      H2303   1.088       .  S
C2302      H2304   1.086       .  S
C2305      C2673   1.544       .  S
C2305      C2678   1.541       .  S
C2305      C2681   1.530       .  S
C2305      C2685   1.534       .  S
C2306      C2657   1.537       .  S
C2306      C2661   1.531       .  S
C2306      C2665   1.530       .  S
C2306      C2669   1.538       .  S
C2307      C3025   1.543       .  S
C2307      C2645   1.530       .  S
C2307      C2649   1.531       .  S
C2307      C2654   1.530       .  S
C2308      C3010   1.545       .  S
C2308      C2630   1.529       .  S
C2308      C2633   1.535       .  S
C2308      C2637   1.541       .  S
C2309      C2614   1.540       .  S
C2309      C2622   1.525       .  S
C2310      C2601   1.528       .  S
C2310      C2605   1.527       .  S
C2311      C2590   1.529       .  S
C2311      C2593   1.535       .  S
C2311      C2597   1.534       .  S
C2312      C2577   1.531       .  S
C2312      C2581   1.530       .  S
C2312      C2585   1.543       .  S
C2312      C2658   1.538       .  S
Zr2313     O2314   2.442       .  S
Zr2313     O2315   2.445       .  S
Zr2313     O2316   2.456       .  S
Zr2313     O2319   2.444       .  S
Zr2313     O2321   2.387       .  S
Zr2313     O2706   2.386       .  S
Zr2313     O2323   2.411       .  S
Zr2313     O2708   2.401       .  S
O2314      H2370   0.990       .  S
O2314      H2378   0.990       .  S
O2315      C2335   1.286       .  A
O2316      C2337   1.288       .  A
O2317     Zr2327   2.422       .  S
O2317      C2336   1.281       .  A
O2318      C2337   1.282       .  A
O2319      C2720   1.288       .  A
O2320     Zr2328   2.418       .  S
O2320      C2719   1.281   1_554  A
O2321     Zr2712   2.377       .  S
O2322     Zr2697   2.374   1_554  S
O2322     Zr2327   2.386       .  S
O2322     Zr2328   2.370       .  S
O2322      H2357   0.965       .  S
O2323      H2360   0.965   1_565  S
O2324     Zr2697   2.407   1_544  S
O2324     Zr2327   2.399   1_545  S
Zr2325     O2331   2.394   1_445  S
Zr2326     O2338   2.439       .  S
Zr2326     O2339   2.424       .  S
Zr2326     O2716   2.398       .  S
Zr2327     O2351   2.437       .  S
Zr2327     O2353   2.418       .  S
Zr2327     O2331   2.396       .  S
Zr2328     O2354   2.436       .  S
Zr2328     O2705   2.381   1_554  S
Zr2328     O2331   2.396       .  S
O2329      H2366   0.990       .  S
O2330      H2361   0.990       .  S
O2330      H2759   0.990       .  S
O2332     Zr2710   2.395   1_554  S
O2332      H2358   0.963       .  S
O2333     Zr2343   2.378   1_554  S
O2334     Zr2343   2.368   1_554  S
O2334      H2359   0.967       .  S
C2335      O2704   1.282       .  A
C2335      C2653   1.481       .  S
C2336      O2703   1.280   1_554  A
C2336      C2634   1.467       .  S
C2337      C2682   1.479       .  S
O2338      H2374   0.990       .  S
O2339      C2725   1.281       .  A
C2341      O2723   1.281   1_554  A
O2342     Zr2727   2.439       .  S
O2342      H2371   0.990       .  S
Zr2343     O2726   2.437       .  S
Zr2343     O2730   2.436       .  S
Zr2343     O2347   2.438   1_556  S
Zr2343     O2348   2.422   1_556  S
O2344      C2349   1.286       .  A
O2345      H2362   0.990       .  S
O2346     Zr2727   2.436       .  S
O2346      H2363   0.990       .  S
O2347      H2367   0.990       .  S
O2347      H2376   0.990       .  S
O2348      C2349   1.283       .  A
C2349      C2609   1.482       .  S
O2350      H2369   0.991       .  S
O2350      H2373   0.990   1_565  S
O2351      H2365   0.990       .  S
O2351      H2372   0.990       .  S
O2352      C2356   1.284       .  A
O2354      H2364   0.990       .  S
O2355      H2368   0.990       .  S
C2356      C2621   1.475       .  S
H2375      O2714   0.989       .  S
Zr2379     O2380   2.443       .  S
Zr2379     O2381   2.444       .  S
Zr2379     O2382   2.443       .  S
Zr2379     O2385   2.435       .  S
Zr2379     O2387   2.383       .  S
Zr2379     O2388   2.378       .  S
Zr2379     O2389   2.406       .  S
Zr2379     O2390   2.403       .  S
O2380      H2436   0.990       .  S
O2380      H2444   0.990       .  S
O2381      C2401   1.285       .  A
O2382      C2403   1.287       .  A
O2383      C2402   1.286       .  A
O2384     Zr2392   2.443       .  S
O2384      C2403   1.285       .  A
O2385      C2402   1.285       .  A
O2386     Zr2394   2.392       .  S
O2386      C2401   1.278       .  A
O2387     Zr2392   2.397       .  S
O2387     Zr2394   2.381       .  S
O2388     Zr2394   2.382       .  S
O2388      H2423   0.966       .  S
O2389     Zr2392   2.403       .  S
O2389     Zr2409   2.388       .  S
O2389      H2426   0.965       .  S
O2390     Zr2409   2.399       .  S
Zr2391     O2416   2.442       .  S
Zr2391     O2410   2.429       .  S
Zr2391     O2418   2.420       .  S
Zr2391     O2397   2.399       .  S
Zr2392     O2411   2.436       .  S
Zr2392     O2404   2.435       .  S
Zr2392     O2405   2.440       .  S
Zr2392     O2398   2.403       .  S
Zr2392     O2399   2.400       .  S
Zr2393     O2395   2.438       .  S
Zr2393     O2417   2.438       .  S
Zr2393     O2419   2.457       .  S
Zr2393     O2397   2.398       .  S
Zr2394     O2396   2.438       .  S
Zr2394     O2398   2.379       .  S
O2395      H2432   0.990       .  S
O2396      H2427   0.990       .  S
O2396      H2441   0.990       .  S
O2398      H2424   0.965       .  S
O2399     Zr2409   2.380       .  S
O2400     Zr2409   2.383       .  S
C2401      C2646   1.472       .  S
C2402      C2677   1.482       .  S
C2403      C2662   1.480       .  S
O2404      H2440   0.990       .  S
O2405      C2407   1.285       .  A
O2406      C2407   1.290   1_455  A
C2407      C2613   1.485       .  S
O2408     Zr2409   2.436       .  S
O2408      H2437   0.990       .  S
Zr2409     O2412   2.437       .  S
Zr2409     O2413   2.437       .  S
Zr2409     O2414   2.416       .  S
O2411      H2428   0.990       .  S
O2411      H2443   0.990       .  S
O2412      H2429   0.990       .  S
O2413      H2433   0.990       .  S
O2413      H2442   0.990       .  S
O2414      C2415   1.280       .  A
C2415      C2602   1.475   1_655  S
O2416      H2435   0.990       .  S
O2416      H2439   0.991       .  S
O2417      H2431   0.990       .  S
O2417      H2438   0.990       .  S
O2418      C2422   1.282       .  A
O2419      C2422   1.288       .  A
O2420      H2430   0.990       .  S
O2421      H2434   0.990       .  S
C2422      C2578   1.483       .  S
Zr2445     O2446   2.441       .  S
Zr2445     O2447   2.440       .  S
Zr2445     O2448   2.453       .  S
Zr2445     O2451   2.429       .  S
Zr2445     O2453   2.386       .  S
Zr2445     O2838   2.385       .  S
Zr2445     O2455   2.404       .  S
Zr2445     O2840   2.405       .  S
O2446      H2502   0.990       .  S
O2446      H2510   0.990       .  S
O2447      C2467   1.284       .  A
O2448      C2469   1.289       .  A
O2449     Zr2459   2.418       .  S
O2449      C2468   1.281       .  A
O2450     Zr2458   2.423       .  S
O2450      C2469   1.280       .  A
O2451      C2852   1.286       .  A
O2452     Zr2460   2.434       .  S
O2452      C2851   1.284   1_554  A
O2453     Zr2458   2.398       .  S
O2453     Zr2844   2.383       .  S
O2454     Zr2829   2.382   1_554  S
O2454     Zr2459   2.393       .  S
O2454     Zr2460   2.378       .  S
O2454      H2489   0.966       .  S
O2455     Zr2458   2.401       .  S
O2455     Zr2859   2.391       .  S
O2455      H2492   0.966       .  S
O2456     Zr2829   2.400       .  S
O2456     Zr2459   2.391   1_556  S
O2456     Zr2475   2.386       .  S
Zr2457     O2482   2.442       .  S
Zr2457     O2476   2.446       .  S
Zr2457     O2484   2.447       .  S
Zr2457     O2472   2.419       .  S
Zr2457     O2463   2.404       .  S
Zr2457     O2464   2.411       .  S
Zr2457     O2465   2.380   1_554  S
Zr2457     O2466   2.383       .  S
Zr2458     O2477   2.445       .  S
Zr2458     O2470   2.436       .  S
Zr2458     O2471   2.432       .  S
Zr2458     O2848   2.397       .  S
Zr2458     O2849   2.392       .  S
Zr2459     O2461   2.435       .  S
Zr2459     O2483   2.438       .  S
Zr2459     O2485   2.423       .  S
Zr2459     O2463   2.397       .  S
Zr2459     O2466   2.389       .  S
Zr2460     O2486   2.434       .  S
Zr2460     O2487   2.436       .  S
Zr2460     O2462   2.438       .  S
Zr2460     O2837   2.380   1_554  S
Zr2460     O2463   2.404       .  S
Zr2460     O2464   2.397       .  S
O2461      H2498   0.990       .  S
O2462      H2493   0.990       .  S
O2462      H2891   0.990   1_554  S
O2464     Zr2842   2.399   1_554  S
O2464      H2490   0.966       .  S
O2465     Zr2842   2.387       .  S
O2465     Zr2475   2.374       .  S
O2466     Zr2475   2.382   1_554  S
O2466      H2491   0.966       .  S
C2467      O2836   1.283       .  A
C2467      C2629   1.485       .  S
C2468      O2835   1.284   1_554  A
C2468      C2650   1.464       .  S
C2469      C2666   1.478       .  S
O2470      H2506   0.990       .  S
O2471      C2857   1.282       .  A
O2472      C2473   1.283       .  A
C2473      O2855   1.285   1_554  A
C2473      C2606   1.477       .  S
O2474     Zr2859   2.436       .  S
O2474      H2503   0.990       .  S
Zr2475     O2858   2.437       .  S
Zr2475     O2862   2.436       .  S
Zr2475     O2479   2.439   1_556  S
Zr2475     O2480   2.401   1_556  S
Zr2475     O2839   2.380       .  S
O2476      C2481   1.284       .  A
O2477      H2494   0.990       .  S
O2477      H2509   0.990       .  S
O2478     Zr2859   2.436       .  S
O2478      H2495   0.991       .  S
O2479      H2499   0.990   1_554  S
O2479      H2508   0.990       .  S
O2480      C2481   1.280       .  A
C2481      C2589   1.482       .  S
O2482      H2501   0.990       .  S
O2482      H2505   0.990       .  S
O2483      H2497   0.990       .  S
O2483      H2504   0.990       .  S
O2484      C2488   1.286       .  A
O2485      C2488   1.281       .  A
O2486      H2496   0.990       .  S
O2487      H2500   0.990       .  S
C2488      C2582   1.480       .  S
H2507      O2846   0.990       .  S
Zr2511     O2512   2.445       .  S
Zr2511     O2513   2.456       .  S
Zr2511     O2514   2.453       .  S
Zr2511     O2517   2.429       .  S
Zr2511     O2519   2.380       .  S
Zr2511     O2520   2.382       .  S
Zr2511     O2521   2.415       .  S
Zr2511     O2522   2.406       .  S
O2512      H2568   0.991       .  S
O2512      H2576   0.991       .  S
O2513      C2533   1.287       .  A
O2514      C2535   1.287       .  A
O2515     Zr2525   2.452       .  S
O2515      C2534   1.287       .  A
O2516      C2535   1.284   1_545  A
O2517      C2534   1.284       .  A
O2518     Zr2526   2.423   1_565  S
O2518      C2533   1.281       .  A
O2519     Zr2526   2.386   1_565  S
O2520     Zr2525   2.397       .  S
O2520     Zr2526   2.380   1_565  S
O2520      H2555   0.965       .  S
O2521     Zr2541   2.400       .  S
O2521      H2558   0.964       .  S
O2522     Zr2525   2.396       .  S
O2522     Zr2541   2.392       .  S
Zr2523     O2548   2.445       .  S
Zr2523     O2542   2.439       .  S
Zr2523     O2550   2.454       .  S
Zr2523     O2538   2.445       .  S
Zr2523     O2530   2.406       .  S
Zr2523     O2531   2.381       .  S
Zr2524     O2543   2.437       .  S
Zr2524     O2536   2.435       .  S
Zr2524     O2537   2.463       .  S
Zr2524     O2530   2.407       .  S
Zr2524     O2531   2.400       .  S
Zr2525     O2527   2.436       .  S
Zr2525     O2549   2.438       .  S
Zr2525     O2551   2.442       .  S
Zr2525     O2529   2.398       .  S
Zr2525     O2532   2.400       .  S
Zr2526     O2552   2.434   1_545  S
Zr2526     O2529   2.393   1_545  S
O2527      H2564   0.990       .  S
O2528      H2559   0.990       .  S
O2528      H2573   0.990       .  S
O2530      H2556   0.965       .  S
O2532     Zr2541   2.379       .  S
O2532      H2557   0.966       .  S
C2533      C2638   1.484       .  S
C2534      C2670   1.479       .  S
C2535      C2686   1.484       .  S
O2536      H2572   0.990       .  S
O2537      C2539   1.289       .  A
O2538      C2539   1.286       .  A
C2539      C2586   1.489       .  S
O2540     Zr2541   2.439       .  S
O2540      H2569   0.990       .  S
Zr2541     O2544   2.436       .  S
Zr2541     O2545   2.439       .  S
Zr2541     O2546   2.415       .  S
O2542      C2547   1.285       .  A
O2543      H2560   0.990       .  S
O2543      H2575   0.990       .  S
O2544      H2561   0.990       .  S
O2545      H2565   0.990       .  S
O2545      H2574   0.990       .  S
C2547      C2594   1.473       .  S
O2548      H2567   0.990       .  S
O2548      H2571   0.991       .  S
O2549      H2563   0.990       .  S
O2549      H2570   0.990       .  S
O2551      C2554   1.285       .  A
O2552      H2562   0.990       .  S
O2553      H2566   0.990       .  S
C2554      C2618   1.484       .  S
C2577      C2578   1.354       .  D
C2577      H2579   1.088       .  S
C2578      H2580   1.086       .  S
C2581      C2582   1.346       .  D
C2581      H2583   1.088       .  S
C2582      H2584   1.087       .  S
C2585      C2586   1.356       .  D
C2585      H2587   1.086       .  S
C2586      H2588   1.088       .  S
C2589      C2590   1.350       .  D
C2589      H2591   1.081       .  S
C2590      H2592   1.086       .  S
C2593      C2594   1.355       .  D
C2593      H2595   1.087       .  S
C2594      H2596   1.083       .  S
C2597      C2598   1.342       .  D
C2597      H2599   1.088       .  S
C2601      H2603   1.087       .  S
C2602      H2604   1.085       .  S
C2605      C2606   1.348       .  D
C2605      H2607   1.087       .  S
C2606      H2608   1.082   1_554  S
C2609      C2610   1.352       .  D
C2609      H2611   1.087   1_655  S
C2613      C2614   1.360       .  D
C2613      H2615   1.087   1_655  S
C2614      H2616   1.087       .  S
C2621      C2622   1.349       .  D
C2622      H2624   1.088   1_655  S
C2625      C2626   1.339       .  D
C2626      C2692   1.529   1_554  S
C2626      H2628   1.088       .  S
C2629      C2630   1.349       .  D
C2629      H2631   1.083       .  S
C2630      H2632   1.086       .  S
C2633      C3018   1.347       .  D
C2633      H3019   1.087       .  S
C2634      C3017   1.345   1_554  D
C2634      H2636   1.087       .  S
H2635      C3017   1.087       .  S
C2637      C2638   1.357       .  D
C2637      H2639   1.087       .  S
C2638      H2640   1.083       .  S
C2641      C2691   1.541   1_554  S
C2641      C2642   1.358       .  D
C2641      H3027   1.085       .  S
C2642      H2644   1.085   1_554  S
H2643      C3025   1.085       .  S
C2645      C2646   1.354       .  D
C2645      H2647   1.087       .  S
C2646      H2648   1.084       .  S
C2649      C3034   1.346       .  D
C2649      H3035   1.087       .  S
C2650      C3033   1.343       .  D
C2650      H3036   1.086   1_554  S
H2651      C3033   1.088       .  S
H2652      C3034   1.083       .  S
C2653      C2654   1.352       .  D
C2653      H3039   1.082       .  S
C2654      H2656   1.087       .  S
H2655      C3037   1.086       .  S
C2657      C2658   1.353       .  D
C2657      H2659   1.087       .  S
C2658      H2660   1.087       .  S
C2661      C2662   1.349       .  D
C2661      H2663   1.088       .  S
C2662      H2664   1.086       .  S
C2665      C2666   1.345       .  D
C2665      H2667   1.088       .  S
C2666      H2668   1.087       .  S
C2669      C2670   1.352       .  D
C2669      H2671   1.087       .  S
C2670      H2672   1.088       .  S
C2673      C2674   1.352       .  D
C2673      H2675   1.087       .  S
C2677      C2678   1.356       .  D
C2677      H2679   1.088       .  S
C2678      H2680   1.086       .  S
C2681      C2682   1.347       .  D
C2681      H2683   1.088       .  S
C2682      H2684   1.087       .  S
C2685      C2686   1.348       .  D
C2685      H2687   1.088       .  S
C2686      H2688   1.086   1_565  S
C2689      C3057   1.547       .  S
C2689      C3062   1.535       .  S
C2689      C3065   1.530       .  S
C2689      C3069   1.539       .  S
C2690      C3041   1.545       .  S
C2690      C3045   1.534       .  S
C2690      C3049   1.527       .  S
C2690      C3053   1.544       .  S
C2691      C3029   1.532       .  S
C2691      C3033   1.525   1_556  S
C2691      C3038   1.523       .  S
C2692      C3014   1.533       .  S
C2692      C3017   1.518       .  S
C2692      C3021   1.538       .  S
C2693      C2998   1.529       .  S
C2693      C3006   1.528       .  S
C2694      C2985   1.537       .  S
C2694      C2989   1.533       .  S
C2695      C2974   1.529       .  S
C2695      C2977   1.540       .  S
C2695      C2981   1.520       .  S
C2696      C2961   1.536       .  S
C2696      C2965   1.531       .  S
C2696      C2969   1.547       .  S
C2696      C3042   1.546       .  S
Zr2697     O2698   2.441       .  S
Zr2697     O2699   2.445       .  S
Zr2697     O2700   2.422       .  S
Zr2697     O2703   2.408       .  S
Zr2697     O2705   2.376       .  S
Zr2697     O2707   2.400   1_565  S
O2698      H2754   0.990       .  S
O2698      H2762   0.991       .  S
O2699      C2719   1.285       .  A
O2700      C2721   1.283       .  A
O2701     Zr2711   2.443       .  S
O2701      C2720   1.285       .  A
O2702      C2721   1.287   1_455  A
O2704     Zr2712   2.422       .  S
O2706     Zr2711   2.390       .  S
O2706     Zr2712   2.376       .  S
O2706      H2741   0.966       .  S
O2707      H2744   0.966       .  S
O2708     Zr2711   2.392       .  S
Zr2709     O2715   2.410   1_445  S
Zr2710     O2722   2.434       .  S
Zr2710     O2723   2.419       .  S
Zr2711     O2735   2.437       .  S
Zr2711     O2737   2.436       .  S
Zr2711     O2715   2.396       .  S
Zr2712     O2738   2.437       .  S
Zr2712     O2715   2.402       .  S
O2713      H2750   0.989       .  S
O2714      H2745   0.990       .  S
O2716      H2742   0.966       .  S
O2717     Zr2727   2.376       .  S
O2718     Zr2727   2.375       .  S
O2718      H2743   0.966       .  S
C2719      C3037   1.480       .  S
C2720      C3018   1.490       .  S
C2721      C3066   1.479       .  S
O2722      H2758   0.990       .  S
O2726      H2755   0.990       .  S
Zr2727     O2731   2.444       .  S
Zr2727     O2732   2.443       .  S
O2728      C2733   1.283   1_455  A
O2729      H2746   0.990       .  S
O2730      H2747   0.990       .  S
O2731      H2751   0.989       .  S
O2731      H2760   0.990       .  S
O2732      C2733   1.285       .  A
C2733      C2993   1.486       .  S
O2734      H2753   0.990       .  S
O2734      H2757   0.990   1_565  S
O2735      H2749   0.990       .  S
O2735      H2756   0.990       .  S
O2736      C2740   1.290       .  A
O2738      H2748   0.990       .  S
O2739      H2752   0.990       .  S
C2740      C3005   1.471       .  S
Zr2763     O2764   2.442       .  S
Zr2763     O2765   2.445       .  S
Zr2763     O2766   2.458       .  S
Zr2763     O2769   2.456       .  S
Zr2763     O2771   2.387       .  S
Zr2763     O2772   2.386       .  S
Zr2763     O2773   2.411       .  S
Zr2763     O2774   2.406       .  S
O2764      H2820   0.990       .  S
O2764      H2828   0.991       .  S
O2765      C2785   1.285       .  A
O2766      C2787   1.289       .  A
O2767      C2786   1.282       .  A
O2768     Zr2776   2.440       .  S
O2768      C2787   1.284       .  A
O2769      C2786   1.289       .  A
O2770     Zr2778   2.407       .  S
O2770      C2785   1.279       .  A
O2771     Zr2776   2.403       .  S
O2771     Zr2778   2.384       .  S
O2772     Zr2778   2.380       .  S
O2772      H2807   0.966       .  S
O2773     Zr2776   2.405       .  S
O2773     Zr2793   2.375       .  S
O2773      H2810   0.965       .  S
O2774     Zr2793   2.391       .  S
Zr2775     O2800   2.442       .  S
Zr2775     O2794   2.426       .  S
Zr2775     O2802   2.444       .  S
Zr2775     O2781   2.398       .  S
Zr2776     O2795   2.437       .  S
Zr2776     O2788   2.436       .  S
Zr2776     O2789   2.436       .  S
Zr2776     O2782   2.408       .  S
Zr2776     O2783   2.395       .  S
Zr2777     O2779   2.435       .  S
Zr2777     O2801   2.440       .  S
Zr2777     O2803   2.447       .  S
Zr2777     O2781   2.404       .  S
Zr2778     O2780   2.442       .  S
Zr2778     O2782   2.396       .  S
O2779      H2816   0.990       .  S
O2780      H2811   0.990       .  S
O2780      H2825   0.990       .  S
O2782      H2808   0.965       .  S
O2783     Zr2793   2.377       .  S
O2784     Zr2793   2.381       .  S
C2785      C3030   1.475       .  S
C2786      C3061   1.480       .  S
C2787      C3046   1.481       .  S
O2788      H2824   0.990       .  S
O2789      C2791   1.284       .  A
O2790      C2791   1.282       .  A
C2791      C2997   1.470       .  S
O2792     Zr2793   2.435       .  S
O2792      H2821   0.990       .  S
Zr2793     O2796   2.437       .  S
Zr2793     O2797   2.439       .  S
Zr2793     O2798   2.391       .  S
O2795      H2812   0.990       .  S
O2795      H2827   0.990       .  S
O2796      H2813   0.990       .  S
O2797      H2817   0.991       .  S
O2797      H2826   0.990       .  S
O2798      C2799   1.276       .  A
C2799      C2986   1.474       .  S
O2800      H2819   0.990       .  S
O2800      H2823   0.990       .  S
O2801      H2815   0.990       .  S
O2801      H2822   0.990       .  S
O2802      C2806   1.287       .  A
O2803      C2806   1.286       .  A
O2804      H2814   0.990       .  S
O2805      H2818   0.990       .  S
C2806      C2962   1.486       .  S
Zr2829     O2830   2.443       .  S
Zr2829     O2831   2.430       .  S
Zr2829     O2832   2.442       .  S
Zr2829     O2835   2.438       .  S
Zr2829     O2837   2.383       .  S
Zr2829     O2839   2.408       .  S
O2830      H2886   0.991       .  S
O2830      H2894   0.990       .  S
O2831      C2851   1.281       .  A
O2832      C2853   1.286       .  A
O2833     Zr2843   2.442       .  S
O2833      C2852   1.285       .  A
O2834     Zr2842   2.434       .  S
O2834      C2853   1.283       .  A
O2836     Zr2844   2.416       .  S
O2837     Zr2842   2.408       .  S
O2838     Zr2843   2.387       .  S
O2838     Zr2844   2.368       .  S
O2838      H2873   0.966       .  S
O2839     Zr2842   2.400       .  S
O2839      H2876   0.965       .  S
O2840     Zr2843   2.393       .  S
O2840     Zr2859   2.391       .  S
Zr2841     O2866   2.441       .  S
Zr2841     O2860   2.435       .  S
Zr2841     O2868   2.434       .  S
Zr2841     O2856   2.453       .  S
Zr2841     O2847   2.400       .  S
Zr2841     O2848   2.402       .  S
Zr2841     O2849   2.376       .  S
Zr2841     O2850   2.391       .  S
Zr2842     O2861   2.437       .  S
Zr2842     O2854   2.435       .  S
Zr2842     O2855   2.440       .  S
Zr2843     O2845   2.436       .  S
Zr2843     O2867   2.436       .  S
Zr2843     O2869   2.439       .  S
Zr2843     O2847   2.391       .  S
Zr2843     O2850   2.397       .  S
Zr2844     O2870   2.437       .  S
Zr2844     O2871   2.436       .  S
Zr2844     O2846   2.437       .  S
Zr2844     O2847   2.386       .  S
Zr2844     O2848   2.397       .  S
O2845      H2882   0.990       .  S
O2846      H2877   0.990       .  S
O2848      H2874   0.966       .  S
O2849     Zr2859   2.382       .  S
O2850     Zr2859   2.380       .  S
O2850      H2875   0.966       .  S
C2851      C3013   1.481       .  S
C2852      C3034   1.481       .  S
C2853      C3050   1.479       .  S
O2854      H2890   0.990       .  S
O2856      C2857   1.288       .  A
C2857      C2990   1.486       .  S
O2858      H2887   0.990       .  S
Zr2859     O2863   2.440       .  S
Zr2859     O2864   2.418       .  S
O2860      C2865   1.284       .  A
O2861      H2878   0.990       .  S
O2861      H2893   0.990       .  S
O2862      H2879   0.990       .  S
O2863      H2883   0.990       .  S
O2863      H2892   0.989       .  S
O2864      C2865   1.282       .  A
C2865      C2973   1.477       .  S
O2866      H2885   0.990       .  S
O2866      H2889   0.990       .  S
O2867      H2881   0.990       .  S
O2867      H2888   0.990       .  S
O2868      C2872   1.286       .  A
O2869      C2872   1.285       .  A
O2870      H2880   0.990       .  S
O2871      H2884   0.990       .  S
C2872      C2966   1.481       .  S
Zr2895     O2896   2.442       .  S
Zr2895     O2897   2.445       .  S
Zr2895     O2898   2.450       .  S
Zr2895     O2901   2.450       .  S
Zr2895     O2903   2.385       .  S
Zr2895     O2904   2.380       .  S
Zr2895     O2905   2.415       .  S
Zr2895     O2906   2.404       .  S
O2896      H2952   0.990       .  S
O2896      H2960   0.990       .  S
O2897      C2917   1.286       .  A
O2898      C2919   1.288       .  A
O2899     Zr2909   2.446       .  S
O2899      C2918   1.285       .  A
O2900      C2919   1.285   1_545  A
O2901      C2918   1.288       .  A
O2902     Zr2910   2.411       .  S
O2902      C2917   1.279       .  A
O2903     Zr2910   2.383       .  S
O2904     Zr2909   2.397       .  S
O2904     Zr2910   2.381       .  S
O2904      H2939   0.966       .  S
O2905     Zr2925   2.391       .  S
O2905      H2942   0.965       .  S
O2906     Zr2909   2.392       .  S
O2906     Zr2925   2.396       .  S
Zr2907     O2932   2.441       .  S
Zr2907     O2926   2.470       .  S
Zr2907     O2934   2.462       .  S
Zr2907     O2922   2.459       .  S
Zr2907     O2914   2.418       .  S
Zr2907     O2915   2.379       .  S
Zr2908     O2927   2.437       .  S
Zr2908     O2920   2.436       .  S
Zr2908     O2921   2.459       .  S
Zr2908     O2914   2.401       .  S
Zr2908     O2915   2.400       .  S
Zr2909     O2911   2.435       .  S
Zr2909     O2933   2.441       .  S
Zr2909     O2935   2.425       .  S
Zr2909     O2913   2.401       .  S
Zr2909     O2916   2.405       .  S
Zr2910     O2936   2.436       .  S
Zr2910     O2913   2.389       .  S
O2911      H2948   0.990       .  S
O2912      H2943   0.990       .  S
O2912      H2957   0.991       .  S
O2914      H2940   0.965       .  S
O2916     Zr2925   2.384       .  S
O2916      H2941   0.966       .  S
C2917      C3022   1.477       .  S
C2918      C3054   1.487       .  S
C2919      C3070   1.485       .  S
O2920      H2956   0.990       .  S
O2921      C2923   1.287       .  A
O2922      C2923   1.288       .  A
C2923      C2970   1.492       .  S
O2924     Zr2925   2.437       .  S
O2924      H2953   0.990       .  S
Zr2925     O2928   2.436       .  S
Zr2925     O2929   2.438       .  S
Zr2925     O2930   2.418       .  S
O2926      C2931   1.290       .  A
O2927      H2944   0.990       .  S
O2927      H2959   0.990       .  S
O2928      H2945   0.989       .  S
O2929      H2949   0.990       .  S
O2929      H2958   0.989       .  S
C2931      C2978   1.487       .  S
O2932      H2951   0.990       .  S
O2932      H2955   0.990       .  S
O2933      H2947   0.990       .  S
O2933      H2954   0.990       .  S
O2935      C2938   1.281       .  A
O2936      H2946   0.990       .  S
O2937      H2950   0.990       .  S
C2938      C3002   1.483       .  S
C2961      C2962   1.350       .  D
C2961      H2963   1.088       .  S
C2962      H2964   1.086       .  S
C2965      C2966   1.349       .  D
C2965      H2967   1.088       .  S
C2966      H2968   1.087       .  S
C2969      C2970   1.362       .  D
C2969      H2971   1.086       .  S
C2970      H2972   1.088       .  S
C2973      C2974   1.349       .  D
C2973      H2975   1.082       .  S
C2974      H2976   1.087       .  S
C2977      C2978   1.360       .  D
C2977      H2979   1.087       .  S
C2978      H2980   1.084       .  S
C2981      C2982   1.337       .  D
C2981      H2983   1.088       .  S
C2985      H2987   1.088       .  S
C2986      H2988   1.085   1_655  S
C2989      C2990   1.345       .  D
C2989      H2991   1.087       .  S
C2990      H2992   1.086       .  S
C2993      C2994   1.349       .  D
C2993      H2995   1.083   1_655  S
C2997      C2998   1.350       .  D
C2997      H2999   1.088   1_655  S
C2998      H3000   1.087       .  S
C3005      C3006   1.338       .  D
C3006      H3008   1.088   1_655  S
C3009      C3010   1.342       .  D
C3010      H3012   1.087       .  S
C3013      C3014   1.347       .  D
C3013      H3015   1.081       .  S
C3014      H3016   1.087   1_556  S
C3018      H3020   1.086       .  S
C3021      C3022   1.355       .  D
C3021      H3023   1.087       .  S
C3022      H3024   1.083       .  S
C3025      C3026   1.348       .  D
C3026      H3028   1.084       .  S
C3029      C3030   1.354       .  D
C3029      H3031   1.087       .  S
C3030      H3032   1.085       .  S
C3037      C3038   1.352       .  D
C3038      H3040   1.088   1_556  S
C3041      C3042   1.352       .  D
C3041      H3043   1.087       .  S
C3042      H3044   1.087       .  S
C3045      C3046   1.350       .  D
C3045      H3047   1.088       .  S
C3046      H3048   1.086       .  S
C3049      C3050   1.348       .  D
C3049      H3051   1.088       .  S
C3050      H3052   1.086       .  S
C3053      C3054   1.360       .  D
C3053      H3055   1.086       .  S
C3054      H3056   1.088       .  S
C3057      C3058   1.360       .  D
C3057      H3059   1.082       .  S
C3061      C3062   1.357       .  D
C3061      H3063   1.087       .  S
C3062      H3064   1.087       .  S
C3065      C3066   1.352       .  D
C3065      H3067   1.087       .  S
C3066      H3068   1.085   1_655  S
C3069      C3070   1.349       .  D
C3069      H3071   1.089       .  S
C3070      H3072   1.086   1_565  S
