geometry optimzed in LAMMPS
_audit_creation_date              2020-11-30 
_audit_creation_method            'lammps2cif' 
_symmetry_space_group_name_H-M    'P1' 
_symmetry_Int_Tables_number       1 
_symmetry_cell_setting            triclinic 
loop_ 
_symmetry_equiv_pos_as_xyz 
  x,y,z 
_cell_length_a                    36.56274472521881 
_cell_length_b                    37.35594883940621 
_cell_length_c                    35.30998424504776 
_cell_angle_alpha                 88.44529833212258 
_cell_angle_beta                  89.07482207164625 
_cell_angle_gamma                 87.91022498059314 
loop_ 
_atom_site_label 
_atom_site_type_symbol 
_atom_site_fract_x 
_atom_site_fract_y 
_atom_site_fract_z 
_atom_site_charge 
C1          C  0.37146906  0.36789462  0.35495273    -0.02810
C2          C  0.12822733  0.09787096  0.08377504    -0.02810
O3          O  0.46779374  0.47802146  0.37369795    -0.80460
O4          O  0.41967680  0.02210639  0.99160382    -0.80490
O5          O  0.41056560  0.45284136  0.49785111    -0.80490
O6          O  0.51486509  0.08445098  0.42538590    -0.80440
O7          O  0.42900377  0.47709183  0.05027562    -0.80560
O8          O  0.48297326  0.05226979  0.38782605    -0.80480
O9          O  0.45170464  0.06058541  0.45793977    -0.80460
O10         O  0.46232722  0.47618925  0.43420319    -0.80500
C11         C  0.44940757  0.46780322  0.40214374     1.09230
C12         C  0.42227372  0.05228683  0.97528200     1.09110
C13         C  0.40378966  0.46240237  0.53326514     1.09250
C14         C  0.49603830  0.08350980  0.39569873     1.09130
O15         O  0.04198572  0.01000586  0.36456724    -0.80460
O16         O  0.49246559  0.44310068  0.03125089    -0.80540
O17         O  0.01693538  0.42342373  0.46133519    -0.80480
O18         O  0.02060051  0.04397198  0.99217971    -0.80460
O19         O  0.48261801  0.01873561  0.03460432    -0.80510
O20         O  0.03563849  0.45242420  0.40934893    -0.80470
O21         O  0.05540177  0.02118283  0.42396216    -0.80430
O22         O  0.46418376  0.39887635  0.50686234    -0.80500
Co23       Co  0.00670092  0.49971094  0.40324618     1.51530
Co24       Co  0.45775212  0.48468838  0.00680427     1.51690
Co25       Co  0.46484408  0.43938947  0.47380408     1.51570
Co26       Co  0.50108587  0.03780388  0.44357458     1.51470
O27         O  0.48154921  0.48983946  0.45576506    -1.42400
C28         C  0.06672952  0.01577449  0.38886874     1.09150
C29         C  0.98373729  0.40943243  0.03302891     1.09240
C30         C  0.04148285  0.42995905  0.43647043     1.09180
C31         C  0.01021925  0.03554653  0.02533434     1.09160
O32         O  0.27370387  0.32601123  0.42759358    -0.80460
O33         O  0.18957085  0.19748455  0.44089500    -0.80490
O34         O  0.28973961  0.20991582  0.40953168    -0.80490
O35         O  0.16674538  0.31438188  0.46389503    -0.80440
O36         O  0.23516723  0.21726847  0.39785132    -0.80560
O37         O  0.21230829  0.35056982  0.46937707    -0.80480
O38         O  0.16155609  0.24810532  0.45354330    -0.80360
O39         O  0.25956949  0.27352263  0.44458509    -0.80500
C40         C  0.27625231  0.29365363  0.42020724     1.09230
C41         C  0.16454318  0.22108037  0.43293874     1.09110
C42         C  0.26467579  0.20468324  0.38611327     1.09250
C43         C  0.17851478  0.34536112  0.46217874     1.09130
O44         O  0.25088182  0.31378040  0.03410181    -0.80460
O45         O  0.26563729  0.15996360  0.45285065    -0.80540
O46         O  0.28903567  0.24667343  0.51924836    -0.80480
O47         O  0.18982255  0.23069420  0.02887313    -0.80460
O48         O  0.23979408  0.20421408  0.50816535    -0.80510
O49         O  0.31012102  0.29616049  0.49665635    -0.80470
O50         O  0.19324129  0.30580676  0.04079972    -0.80430
O51         O  0.30914583  0.18744381  0.48033754    -0.80500
Co52       Co  0.25935471  0.31804428  0.48014905     1.51530
Co53       Co  0.24073108  0.21222846  0.45409878     1.51690
Co54       Co  0.28193530  0.23006561  0.46578753     1.51570
Co55       Co  0.18351318  0.27339612  0.49521708     1.51470
O56         O  0.23453440  0.26733332  0.46554027    -1.42400
C57         C  0.22216189  0.32023258  0.05175350     1.09150
C58         C  0.29792796  0.15828940  0.46839526     1.09240
C59         C  0.31165550  0.27117798  0.52248215     1.09180
C60         C  0.20986943  0.20293234  0.02507016     1.09160
O61         O  0.42518801  0.26322624  0.25994754    -0.80460
O62         O  0.05007816  0.28032095  0.15955870    -0.80490
O63         O  0.02852810  0.32871378  0.23710321    -0.80490
O64         O  0.45349175  0.22799050  0.13447612    -0.80440
O65         O  0.08007851  0.30050129  0.22584441    -0.80560
O66         O  0.42626543  0.26019974  0.17643649    -0.80480
O67         O  0.49008302  0.28533903  0.16221905    -0.80460
O68         O  0.46185344  0.30129228  0.23976587    -0.80500
C69         C  0.43625022  0.29455510  0.26118026     1.09230
C70         C  0.01983737  0.29595198  0.14847254     1.09110
C71         C  0.06228290  0.32960757  0.22943497     1.09250
C72         C  0.42662227  0.24813272  0.14186106     1.09130
O73         O  0.41369677  0.20264750  0.21925081    -0.80460
O74         O  0.07796520  0.23241273  0.26289426    -0.80540
O75         O  0.48601680  0.24855620  0.30414068    -0.80480
O76         O  0.02231247  0.21888799  0.14784102    -0.80460
O77         O  0.05052384  0.20676081  0.19945753    -0.80510
O78         O  0.47221196  0.20300958  0.26861061    -0.80470
O79         O  0.46543316  0.18285254  0.19445636    -0.80430
O80         O  0.05242315  0.27673722  0.29430573    -0.80500
Co81       Co  0.45425309  0.23264457  0.22370808     1.51530
Co82       Co  0.06161927  0.25372312  0.21181224     1.51690
Co83       Co  0.00564748  0.28827696  0.26704335     1.51570
Co84       Co  0.48103137  0.23641466  0.17910501     1.51470
O85         O  0.50728454  0.25328693  0.22598210    -1.42400
C86         C  0.43204400  0.17637648  0.20624788     1.09150
C87         C  0.07554823  0.25060710  0.29307980     1.09240
C88         C  0.48019009  0.21488916  0.30085672     1.09180
C89         C  0.04829421  0.20391869  0.16498596     1.09160
O90         O  0.30995281  0.47199095  0.23715870    -0.80460
O91         O  0.24225302  0.48515583  0.13011446    -0.80490
O92         O  0.23265342  0.40690058  0.21643207    -0.80490
O93         O  0.30791249  0.06285742  0.19091972    -0.80440
O94         O  0.26683486  0.43694791  0.18045374    -0.80560
O95         O  0.32226981  0.04205164  0.24849727    -0.80480
O96         O  0.28898068  0.00152478  0.16499055    -0.80460
O97         O  0.28287785  0.42958531  0.26955152    -0.80500
C98         C  0.30943447  0.44019755  0.24903936     1.09230
C99         C  0.27641196  0.99136124  0.13284016     1.09110
C100        C  0.25003512  0.40860518  0.18553274     1.09250
C101        C  0.33027370  0.06084525  0.21742991     1.09130
O102        O  0.26075502  0.04527400  0.30079668    -0.80460
O103        O  0.18591554  0.44914198  0.18963178    -0.80540
O104        O  0.22218123  0.46313150  0.31156430    -0.80480
O105        O  0.23675061  0.05929105  0.18277331    -0.80460
O106        O  0.19752520  0.01782837  0.18805244    -0.80510
O107        O  0.23990068  0.51854196  0.30693242    -0.80470
O108        O  0.26134175  0.07580729  0.24857934    -0.80430
O109        O  0.17968703  0.45440647  0.25120972    -0.80500
Co110      Co  0.28258224  0.50390692  0.26985697     1.51530
Co111      Co  0.23298698  0.48006722  0.18456470     1.51690
Co112      Co  0.23101599  0.44282719  0.26052728     1.51570
Co113      Co  0.27299690  0.03249108  0.21094579     1.51470
O114        O  0.24100077  0.49363895  0.23626248    -1.42400
C115        C  0.26050746  0.07650205  0.28482002     1.09150
C116        C  0.16758671  0.44325092  0.22088715     1.09240
C117        C  0.21569386  0.49580930  0.31811349     1.09180
C118        C  0.20447031  0.05028055  0.18727541     1.09160
C119        C  0.37196136  0.10192335  0.24518653    -0.06110
C120        C  0.36294754  0.08377198  0.21348548    -0.00180
C121        C  0.38199709  0.09176908  0.17859977    -0.08750
C122        C  0.40705358  0.12036255  0.17680169    -0.06130
C123        C  0.41426741  0.14024352  0.20895852    -0.00190
C124        C  0.39730651  0.12915766  0.24358401    -0.08660
C125        C  0.40854420  0.14377403  0.27997240     0.61720
H126        H  0.35758127  0.09542942  0.27140673     0.12410
H127        H  0.41952380  0.12838774  0.15002677     0.12420
C128        C  0.37617372  0.07023688  0.14352051     0.61950
F129        F  0.39261359  0.12588585  0.31007406    -0.23220
F130        F  0.39800044  0.17949689  0.28242371    -0.20540
F131        F  0.44605495  0.13844848  0.28163214    -0.20220
F132        F  0.34250431  0.07935513  0.12807295    -0.20270
F133        F  0.37774218  0.03401263  0.15290126    -0.20600
F134        F  0.40285638  0.07651358  0.11613274    -0.23270
C135        C  0.11459542  0.36122408  0.25165965    -0.06110
C136        C  0.08356268  0.36326691  0.22902313    -0.00180
C137        C  0.07754223  0.39489363  0.20603879    -0.08750
C138        C  0.10562183  0.42022762  0.20305026    -0.06130
C139        C  0.13726158  0.41719044  0.22530034    -0.00190
C140        C  0.13911080  0.38902016  0.25362948    -0.08660
C141        C  0.16651888  0.38681687  0.28612733     0.61720
H142        H  0.11999794  0.33685066  0.26792695     0.12410
H143        H  0.10204942  0.44298463  0.18388306     0.12420
C144        C  0.04270529  0.40385854  0.18458250     0.61950
F145        F  0.16276729  0.35633547  0.30884756    -0.23220
F146        F  0.16123830  0.41619075  0.30882687    -0.20540
F147        F  0.20194934  0.38549624  0.27312091    -0.20220
F148        F  0.02304250  0.43052195  0.20325237    -0.20270
F149        F  0.02087349  0.37489485  0.18141850    -0.20600
F150        F  0.05109135  0.41649323  0.14842431    -0.23270
C151        C  0.21311264  0.33359186  0.12164828    -0.06110
C152        C  0.22534762  0.34461953  0.08536330    -0.00180
C153        C  0.24847971  0.37497423  0.08328255    -0.08750
C154        C  0.25521271  0.39422539  0.11633661    -0.06130
C155        C  0.24335195  0.38341426  0.15271943    -0.00190
C156        C  0.22371111  0.35087650  0.15526532    -0.08660
C157        C  0.21586596  0.33264079  0.19301443     0.61720
H158        H  0.19762775  0.30943727  0.12380206     0.12410
H159        H  0.27167542  0.41746735  0.11404547     0.12420
C160        C  0.26972651  0.38557887  0.04737254     0.61950
F161        F  0.20711875  0.29718523  0.18906774    -0.23220
F162        F  0.18666765  0.35009512  0.20998540    -0.20540
F163        F  0.24614028  0.33320149  0.21596613    -0.20220
F164        F  0.24739046  0.38745903  0.01641339    -0.20270
F165        F  0.29831265  0.36111042  0.04113772    -0.20600
F166        F  0.28476110  0.41865140  0.04999924    -0.23270
C167        C  0.27846945  0.14245179  0.29678182    -0.06110
C168        C  0.25971746  0.11119440  0.30891724    -0.00180
C169        C  0.24343022  0.11286668  0.34608399    -0.08750
C170        C  0.24635385  0.14376820  0.36836138    -0.06130
C171        C  0.26550343  0.17416705  0.35720350    -0.00190
C172        C  0.28163092  0.17356910  0.32012402    -0.08660
C173        C  0.30134584  0.20597690  0.30513698     0.61720
H174        H  0.29144365  0.14214995  0.26902122     0.12410
H175        H  0.23316275  0.14424593  0.39587036     0.12420
C176        C  0.22055130  0.08308941  0.36229592     0.61950
F177        F  0.31447814  0.20133525  0.26854800    -0.23220
F178        F  0.33060166  0.21220276  0.32800817    -0.20540
F179        F  0.27755852  0.23561589  0.30509312    -0.20220
F180        F  0.24215132  0.05267927  0.36939118    -0.20270
F181        F  0.19372459  0.07710863  0.33661668    -0.20600
F182        F  0.20343742  0.09136479  0.39629940    -0.23270
C183        C  0.12055883  0.25603288  0.39169474    -0.06110
C184        C  0.14027964  0.22305417  0.39707351    -0.00180
C185        C  0.13759983  0.19849982  0.36663817    -0.08750
C186        C  0.11846459  0.20909377  0.33268128    -0.06130
C187        C  0.09930747  0.24237363  0.32802336    -0.00190
C188        C  0.10102144  0.26635080  0.35879414    -0.08660
C189        C  0.08301728  0.30369404  0.35785198     0.61720
H190        H  0.12039399  0.27498918  0.41415613     0.12410
H191        H  0.11680046  0.19001590  0.31022987     0.12420
C192        C  0.15087415  0.15997296  0.36829976     0.61950
F193        F  0.09185546  0.32337280  0.38867960    -0.23220
F194        F  0.04556255  0.30206813  0.35811420    -0.20540
F195        F  0.09430682  0.32196229  0.32580565    -0.20220
F196        F  0.16523969  0.14980479  0.40279758    -0.20270
F197        F  0.17663527  0.15489295  0.33981349    -0.20600
F198        F  0.12195242  0.13814295  0.36190856    -0.23270
C199        C  0.36158751  0.26404010  0.12093529    -0.06110
C200        C  0.39816817  0.25641868  0.11067402    -0.00180
C201        C  0.40583916  0.25346054  0.07058453    -0.08750
C202        C  0.37757098  0.26102624  0.04355382    -0.06130
C203        C  0.34079083  0.26823294  0.05392170    -0.00190
C204        C  0.33288866  0.26808250  0.09393569    -0.08660
C205        C  0.29511349  0.27680558  0.10927120     0.61720
H206        H  0.35531086  0.26597866  0.15089920     0.12410
H207        H  0.38371152  0.25946494  0.01355636     0.12420
C208        C  0.44330970  0.24104594  0.05542818     0.61950
F209        F  0.29139269  0.26699996  0.14721632    -0.23220
F210        F  0.26865816  0.25965209  0.08986479    -0.20540
F211        F  0.28997691  0.31326081  0.10593875    -0.20220
F212        F  0.45030713  0.20566032  0.06630137    -0.20270
F213        F  0.47031374  0.26189433  0.06899808    -0.20600
F214        F  0.44540494  0.24316370  0.01624014    -0.23270
C215        C  0.35998120  0.13658019  0.48749145    -0.06110
C216        C  0.32606591  0.12700507  0.47259337    -0.00180
C217        C  0.32346837  0.09066643  0.46226379    -0.08750
C218        C  0.35463368  0.06665287  0.46632833    -0.06130
C219        C  0.38946057  0.07818426  0.97670859    -0.00190
C220        C  0.39122627  0.11408349  0.98872972    -0.08660
C221        C  0.42538097  0.13286334  0.99998657     0.61720
H222        H  0.36241888  0.16233404  0.00042700     0.12410
H223        H  0.35248019  0.03886164  0.45917887     0.12420
C224        C  0.28985166  0.07793213  0.44361270     0.61950
F225        F  0.42844384  0.16432075  0.97862808    -0.23220
F226        F  0.45707421  0.11300905  0.99427219    -0.20540
F227        F  0.42225723  0.14146913  0.03776150    -0.20220
F228        F  0.28781628  0.09477389  0.40872962    -0.20270
F229        F  0.25874889  0.08619477  0.46483070    -0.20600
F230        F  0.29155972  0.04134034  0.43820198    -0.23270
C231        C  0.09400797  0.40788153  0.47698910    -0.06110
C232        C  0.07905284  0.41133306  0.44058812    -0.00180
C233        C  0.10079852  0.39822246  0.40991064    -0.08750
C234        C  0.13493959  0.37928077  0.41719081    -0.06130
C235        C  0.14941647  0.37479848  0.45403996    -0.00190
C236        C  0.12878250  0.39098751  0.48402271    -0.08660
C237        C  0.14270488  0.38950067  0.02414773     0.61720
H238        H  0.07803327  0.41880371  0.50033922     0.12410
H239        H  0.15009064  0.36687959  0.39412194     0.12420
C240        C  0.08701180  0.40296535  0.36982870     0.61950
F241        F  0.12325267  0.41328263  0.04689819    -0.23220
F242        F  0.17874607  0.39897580  0.02420057    -0.20540
F243        F  0.13970156  0.35527791  0.03921893    -0.20220
F244        F  0.08665850  0.43870415  0.35884959    -0.20270
F245        F  0.05210458  0.39016816  0.36741640    -0.20600
F246        F  0.10905832  0.38471261  0.34468437    -0.23270
C247        C  0.17352525  0.49620520  0.37571113    -0.06110
C248        C  0.17925861  0.50625689  0.33763961    -0.00180
C249        C  0.14818271  0.02177745  0.31864509    -0.08750
C250        C  0.11361601  0.02514729  0.33737390    -0.06130
C251        C  0.10725335  0.01427758  0.37535391    -0.00190
C252        C  0.13883656  0.49998300  0.39479079    -0.08660
C253        C  0.13986052  0.48764633  0.43567164     0.61720
H254        H  0.19676107  0.48448719  0.39092917     0.12410
H255        H  0.09066237  0.03629653  0.32130500     0.12420
C256        C  0.14877719  0.03443772  0.27782267     0.61950
F257        F  0.15293643  0.45262240  0.43775939    -0.23220
F258        F  0.10655535  0.48974779  0.45413303    -0.20540
F259        F  0.16436824  0.50815349  0.45398665    -0.20220
F260        F  0.12676334  0.01280269  0.25755029    -0.20270
F261        F  0.18335997  0.03348320  0.26223738    -0.20600
F262        F  0.13515491  0.06946063  0.27502578    -0.23270
C263        C  0.33595337  0.47946292  0.04046595    -0.06110
C264        C  0.36771651  0.46162936  0.05530468    -0.00180
C265        C  0.36697161  0.45210953  0.09503337    -0.08750
C266        C  0.33560018  0.46048786  0.11716278    -0.06130
C267        C  0.30493057  0.47978407  0.10316584    -0.00190
C268        C  0.30476295  0.48897233  0.06385878    -0.08660
C269        C  0.27205450  0.00945966  0.04749780     0.61720
H270        H  0.33657355  0.48795010  0.01091414     0.12410
H271        H  0.33579549  0.45290740  0.14705760     0.12420
C272        C  0.39826889  0.43439302  0.11774715     0.61950
F273        F  0.27715899  0.01721388  0.00934996    -0.23220
F274        F  0.26638992  0.04132934  0.06607674    -0.20540
F275        F  0.24121953  0.98929005  0.05177768    -0.20220
F276        F  0.43014344  0.42785284  0.09761765    -0.20270
F277        F  0.38699723  0.40199720  0.13291503    -0.20600
F278        F  0.40660196  0.45620057  0.14724039    -0.23270
C279        C  0.03067630  0.37814505  0.07745946    -0.06110
C280        C  0.99449684  0.38202879  0.06362125    -0.00180
C281        C  0.46876775  0.35641806  0.07652799    -0.08750
C282        C  0.47936249  0.33056803  0.10400995    -0.06130
C283        C  0.01526592  0.32552318  0.11780465    -0.00190
C284        C  0.04187789  0.34940406  0.10317724    -0.08660
C285        C  0.08192528  0.34390406  0.11286137     0.61720
H286        H  0.05065657  0.39650169  0.06633491     0.12410
H287        H  0.45879737  0.31234835  0.11364373     0.12420
C288        C  0.43125007  0.35187482  0.05871286     0.61950
F289        F  0.10168077  0.37345804  0.10258566    -0.23220
F290        F  0.09640213  0.31457472  0.09408388    -0.20540
F291        F  0.08637598  0.33817735  0.15112541    -0.20220
F292        F  0.43642626  0.33342157  0.02556217    -0.20270
F293        F  0.41276707  0.38391032  0.05084051    -0.20600
F294        F  0.40816771  0.33257499  0.08225633    -0.23270
C295        C  0.45099772  0.16940352  0.34719354    -0.06110
C296        C  0.48186957  0.18803530  0.33481051    -0.00180
C297        C  0.51465884  0.17724012  0.35317826    -0.08750
C298        C  0.51930166  0.14104762  0.36653327    -0.06130
C299        C  0.48936024  0.11864001  0.37278497    -0.00190
C300        C  0.45414683  0.13505036  0.36596147    -0.08660
C301        C  0.42055639  0.11820297  0.38226506     0.61720
H302        H  0.42441387  0.18175158  0.34187323     0.12410
H303        H  0.04547653  0.13230040  0.37819237     0.12420
C304        C  0.02928520  0.20393503  0.37969150     0.61950
F305        F  0.38916862  0.13976121  0.37808187    -0.23220
F306        F  0.42601154  0.11357661  0.41994649    -0.20540
F307        F  0.41560229  0.08531142  0.36640785    -0.20220
F308        F  0.00715772  0.20525337  0.41183129    -0.20270
F309        F  0.02895862  0.23754050  0.36312437    -0.20600
F310        F  0.06424890  0.19408654  0.39074631    -0.23270
C311        C  0.14283963  0.06016241  0.17640638    -0.06110
C312        C  0.17428442  0.07657365  0.18693832    -0.00180
C313        C  0.18365878  0.10632803  0.16592315    -0.08750
C314        C  0.17906304  0.10406716  0.12728224    -0.06130
C315        C  0.15443514  0.07868453  0.11217154    -0.00190
C316        C  0.14190283  0.05156424  0.13802106    -0.08660
C317        C  0.14066180  0.01151915  0.12943234     0.61720
H318        H  0.13139798  0.04189882  0.19712859     0.12410
H319        H  0.18645132  0.12790052  0.11169259     0.12420
C320        C  0.20232626  0.13717316  0.18310403     0.61950
F321        F  0.13565485  0.49216527  0.16321905    -0.23220
F322        F  0.17304094  0.99994692  0.11252365    -0.20540
F323        F  0.11204331  0.00257285  0.10765847    -0.20220
F324        F  0.23728994  0.13978229  0.16803264    -0.20270
F325        F  0.20454039  0.13250656  0.22205673    -0.20600
F326        F  0.18249744  0.16864259  0.17517836    -0.23270
C327        C  0.11988685  0.16213767  0.10490609    -0.06110
C328        C  0.11066347  0.12609952  0.11083645    -0.00180
C329        C  0.08463133  0.11729393  0.14171145    -0.08750
C330        C  0.06964569  0.14532657  0.16129789    -0.06130
C331        C  0.07266332  0.17971876  0.14757771    -0.00190
C332        C  0.09936778  0.18956693  0.12117435    -0.08660
C333        C  0.10647937  0.22839258  0.11130106     0.61720
H334        H  0.14271030  0.16908677  0.08726861     0.12410
H335        H  0.05076561  0.14020966  0.18489368     0.12420
C336        C  0.06517720  0.08254906  0.15457809     0.61950
F337        F  0.13516842  0.23185345  0.08562851    -0.23220
F338        F  0.11520094  0.24592733  0.14376778    -0.20540
F339        F  0.07551934  0.24442963  0.09536048    -0.20220
F340        F  0.07283081  0.07440982  0.19212060    -0.20270
F341        F  0.07203530  0.05269256  0.13376067    -0.20600
F342        F  0.02775813  0.08836056  0.15372072    -0.23270
C343        C  0.15671959  0.16862677  0.01636743    -0.06110
C344        C  0.19263583  0.16901830  0.02971887    -0.00180
C345        C  0.21035744  0.13669107  0.04216301    -0.08750
C346        C  0.18854771  0.10673074  0.04610033    -0.06130
C347        C  0.14991731  0.11215760  0.04805876    -0.00190
C348        C  0.13537099  0.13919739  0.02284327    -0.08660
C349        C  0.09979189  0.13900968  0.00116801     0.61720
H350        H  0.14438052  0.19261571  0.50230220     0.12410
H351        H  0.20149267  0.08256631  0.05785829     0.12420
C352        C  0.24957796  0.13298623  0.05637225     0.61950
F353        F  0.10679984  0.15276537  0.46360381    -0.23220
F354        F  0.07335819  0.16033237  0.01883304    -0.20540
F355        F  0.08767090  0.10537872  0.49567896    -0.20220
F356        F  0.26601854  0.16530979  0.06035164    -0.20270
F357        F  0.27030555  0.11235569  0.03179838    -0.20600
F358        F  0.25031754  0.11580328  0.09151656    -0.23270
C359        C  0.06761640  0.02638415  0.04938160    -0.06110
C360        C  0.03352509  0.04432539  0.05382714    -0.00180
C361        C  0.02988788  0.07948214  0.06535195    -0.08750
C362        C  0.06146794  0.09682817  0.06893173    -0.06130
C363        C  0.09648285  0.07875685  0.06829447    -0.00190
C364        C  0.09960659  0.04508463  0.05174698    -0.08660
C365        C  0.13382509  0.03119211  0.03130943     0.61720
H366        H  0.06860809  0.00011292  0.03685641     0.12410
H367        H  0.05803953  0.12521545  0.07368119     0.12420
C368        C  0.49421824  0.10161709  0.06877102     0.61950
F369        F  0.13135303  0.49577909  0.02204877    -0.23220
F370        F  0.16470446  0.03310047  0.05240311    -0.20540
F371        F  0.13834094  0.05175733  0.99862705    -0.20220
F372        F  0.48956999  0.11468584  0.10468132    -0.20270
F373        F  0.46382603  0.08223400  0.06131358    -0.20600
F374        F  0.49605507  0.13102023  0.04430900    -0.23270
C375        C  0.35790183  0.43376394  0.37622857    -0.06110
C376        C  0.36565906  0.39727694  0.38562537    -0.00180
C377        C  0.38561396  0.39253756  0.41923059    -0.08750
C378        C  0.41638008  0.41327941  0.42169982    -0.06130
C379        C  0.41749996  0.44563440  0.40042248    -0.00190
C380        C  0.38492619  0.45870422  0.38302338    -0.08660
C381        C  0.37965557  0.49775041  0.37107673     0.61720
H382        H  0.33640383  0.44181933  0.35702017     0.12410
H383        H  0.43754183  0.40510187  0.44118629     0.12420
C384        C  0.36898205  0.37615540  0.45492404     0.61950
F385        F  0.34477941  0.00551309  0.35863547    -0.23220
F386        F  0.40459139  0.00632311  0.34272610    -0.20540
F387        F  0.38587833  0.01899197  0.40181321    -0.20220
F388        F  0.33462076  0.36368376  0.44839961    -0.20270
F389        F  0.36500082  0.40178799  0.48224494    -0.20600
F390        F  0.39103422  0.34840026  0.46902450    -0.23270
C391        C  0.35552236  0.31300831  0.39405918    -0.06110
C392        C  0.34379351  0.33927644  0.36733921    -0.00180
C393        C  0.30736136  0.33617970  0.35317372    -0.08750
C394        C  0.29098520  0.30273383  0.35782825    -0.06130
C395        C  0.30072537  0.28168081  0.38963789    -0.00190
C396        C  0.33754015  0.28150043  0.40013679    -0.08660
C397        C  0.35740394  0.25013920  0.41994824     0.61720
H398        H  0.37879069  0.31700598  0.41090389     0.12410
H399        H  0.26346197  0.30027908  0.34733767     0.12420
C400        C  0.28156014  0.36704581  0.34069141     0.61950
F401        F  0.39335026  0.25731430  0.42743115    -0.23220
F402        F  0.35796506  0.22048153  0.39744182    -0.20540
F403        F  0.34075578  0.24240293  0.45393884    -0.20220
F404        F  0.26877322  0.36179721  0.30480545    -0.20270
F405        F  0.29714770  0.39970172  0.34116386    -0.20600
F406        F  0.25165737  0.36861086  0.36519809    -0.23270
C407        C  0.37881373  0.41489996  0.30185160    -0.06110
C408        C  0.36440793  0.38125844  0.31284731    -0.00180
C409        C  0.34898487  0.36163868  0.28214272    -0.08750
C410        C  0.33739148  0.38170791  0.25008797    -0.06130
C411        C  0.34266138  0.41837587  0.24751069    -0.00190
C412        C  0.37102205  0.43221837  0.26772469    -0.08660
C413        C  0.38367069  0.47015538  0.26114023     0.61720
H414        H  0.39671458  0.42854737  0.31980552     0.12410
H415        H  0.31970201  0.36996882  0.22978122     0.12420
C416        C  0.34437012  0.32133035  0.27802900     0.61950
F417        F  0.41979180  0.47306932  0.27112479    -0.23220
F418        F  0.36264464  0.49306410  0.28324214    -0.20540
F419        F  0.38058943  0.98048457  0.22353694    -0.20220
F420        F  0.30792512  0.31401948  0.27377610    -0.20270
F421        F  0.35773600  0.30016473  0.30732784    -0.20600
F422        F  0.36231731  0.31064933  0.24525788    -0.23270
C423        C  0.42678457  0.29827619  0.32973158    -0.06110
C424        C  0.43208565  0.31618064  0.29468380    -0.00180
C425        C  0.44071405  0.35336480  0.29472026    -0.08750
C426        C  0.43788526  0.37024964  0.32998784    -0.06130
C427        C  0.41375822  0.35470043  0.35640315    -0.00190
C428        C  0.42455311  0.31839019  0.36222703    -0.08660
C429        C  0.45238951  0.30865417  0.39238218     0.61720
H430        H  0.42752120  0.26932672  0.33224331     0.12410
H431        H  0.44498510  0.39781822  0.33286676     0.12420
C432        C  0.44582343  0.37641496  0.25886472     0.61950
F433        F  0.48496286  0.32415050  0.38268804    -0.23220
F434        F  0.45829357  0.27188880  0.39572911    -0.20540
F435        F  0.44131947  0.32133039  0.42712960    -0.20220
F436        F  0.41639989  0.37344212  0.23531980    -0.20270
F437        F  0.47640816  0.36684645  0.23903179    -0.20600
F438        F  0.44963705  0.41190302  0.26703941    -0.23270
C439        C  0.37159308  0.36777081  0.85487617    -0.02810
C440        C  0.12826761  0.09774352  0.58292295    -0.02810
O441        O  0.46809841  0.47796281  0.87380657    -0.80460
O442        O  0.41947597  0.02213063  0.49155912    -0.80490
O443        O  0.41049646  0.45309372  0.99793063    -0.80490
O444        O  0.51484971  0.08439908  0.92532679    -0.80440
O445        O  0.42907265  0.47696400  0.55011443    -0.80560
O446        O  0.48295674  0.05220357  0.88772218    -0.80480
O447        O  0.45171301  0.06071109  0.95793530    -0.80460
O448        O  0.46230291  0.47631619  0.93427865    -0.80500
C449        C  0.44959564  0.46778938  0.90218204     1.09230
C450        C  0.42220278  0.05227929  0.47522720     1.09110
C451        C  0.40372692  0.46256313  0.03337224     1.09250
C452        C  0.49599953  0.08343900  0.89565303     1.09130
O453        O  0.04186651  0.00995310  0.86424419    -0.80460
O454        O  0.49251258  0.44292001  0.53114947    -0.80540
O455        O  0.01674525  0.42336729  0.96133609    -0.80480
O456        O  0.02028495  0.04434016  0.49243937    -0.80460
O457        O  0.48209412  0.01928822  0.53480077    -0.80510
O458        O  0.03594941  0.45280697  0.90982150    -0.80470
O459        O  0.05528106  0.02114816  0.92362858    -0.80430
O460        O  0.46403371  0.39910103  0.00700384    -0.80500
Co461      Co  0.00676879  0.49991523  0.90346296     1.51530
Co462      Co  0.45779837  0.48445696  0.50660543     1.51690
Co463      Co  0.46472678  0.43956157  0.97388943     1.51570
Co464      Co  0.50104797  0.03776641  0.94341568     1.51470
O465        O  0.48148743  0.49005347  0.95592795    -1.42400
C466        C  0.06660118  0.01574040  0.88854288     1.09150
C467        C  0.98382849  0.40923403  0.53291245     1.09240
C468        C  0.04146210  0.42999443  0.93668095     1.09180
C469        C  0.00960048  0.03627145  0.52560168     1.09160
O470        O  0.27363563  0.32588901  0.92759060    -0.80460
O471        O  0.18964606  0.19738564  0.94084126    -0.80490
O472        O  0.28980833  0.20979638  0.90952908    -0.80490
O473        O  0.16662829  0.31419205  0.96423523    -0.80440
O474        O  0.23522830  0.21715098  0.89791328    -0.80560
O475        O  0.21222969  0.35040408  0.96934052    -0.80480
O476        O  0.16154990  0.24796368  0.95354094    -0.80360
O477        O  0.25961618  0.27337825  0.94460535    -0.80500
C478        C  0.27625812  0.29353388  0.92022143     1.09230
C479        C  0.16461536  0.22098352  0.93287202     1.09110
C480        C  0.26472238  0.20457229  0.88614689     1.09250
C481        C  0.17840519  0.34516262  0.96233274     1.09130
O482        O  0.25090535  0.31378002  0.53410725    -0.80460
O483        O  0.26567938  0.15981866  0.95298990    -0.80540
O484        O  0.28912148  0.24653043  0.01922171    -0.80480
O485        O  0.18989660  0.23114832  0.52893860    -0.80460
O486        O  0.23986412  0.20404153  0.00818563    -0.80510
O487        O  0.31006899  0.29611079  0.99667707    -0.80470
O488        O  0.19319165  0.30622670  0.54056033    -0.80430
O489        O  0.30935269  0.18732473  0.98020665    -0.80500
Co490      Co  0.25929581  0.31794119  0.98014328     1.51530
Co491      Co  0.24080523  0.21208857  0.95414733     1.51690
Co492      Co  0.28203681  0.22993846  0.96575709     1.51570
Co493      Co  0.18351499  0.27310671  0.99533813     1.51470
O494        O  0.23455449  0.26716919  0.96559230    -1.42400
C495        C  0.22217058  0.32043090  0.55165005     1.09150
C496        C  0.29796448  0.15811759  0.96855771     1.09240
C497        C  0.31164644  0.27111500  0.02248870     1.09180
C498        C  0.20983276  0.20330925  0.52516011     1.09160
O499        O  0.42532752  0.26289482  0.75992222    -0.80460
O500        O  0.05017671  0.28005576  0.65934552    -0.80490
O501        O  0.02856209  0.32853776  0.73691799    -0.80490
O502        O  0.45354378  0.22778923  0.63438092    -0.80440
O503        O  0.08012271  0.30035827  0.72563962    -0.80560
O504        O  0.42629442  0.25986596  0.67643633    -0.80480
O505        O  0.49017779  0.28510524  0.66209704    -0.80460
O506        O  0.46190003  0.30100570  0.73963653    -0.80500
C507        C  0.43632317  0.29425336  0.76108556     1.09230
C508        C  0.01992641  0.29571594  0.64832012     1.09110
C509        C  0.06231510  0.32946218  0.72923266     1.09250
C510        C  0.42665505  0.24788836  0.64182484     1.09130
O511        O  0.41385922  0.20218246  0.71943066    -0.80460
O512        O  0.07814606  0.23225223  0.76271377    -0.80540
O513        O  0.48615447  0.24833522  0.80399859    -0.80480
O514        O  0.02238732  0.21862784  0.64773361    -0.80460
O515        O  0.05097604  0.20641312  0.69916941    -0.80510
O516        O  0.47247177  0.20274922  0.76847655    -0.80470
O517        O  0.46556628  0.18259593  0.69433978    -0.80430
O518        O  0.05255519  0.27657234  0.79410161    -0.80500
Co519      Co  0.45437660  0.23231746  0.72366246     1.51530
Co520      Co  0.06176748  0.25349921  0.71160463     1.51690
Co521      Co  0.00574463  0.28805202  0.76686915     1.51570
Co522      Co  0.48112442  0.23618057  0.67899273     1.51470
O523        O  0.50740830  0.25302133  0.72582568    -1.42400
C524        C  0.43223900  0.17600031  0.70625313     1.09150
C525        C  0.07571032  0.25046503  0.79289050     1.09240
C526        C  0.48038192  0.21465852  0.80071046     1.09180
C527        C  0.04839657  0.20351630  0.66472553     1.09160
O528        O  0.30992853  0.47198110  0.73722524    -0.80460
O529        O  0.24234953  0.48545122  0.63003396    -0.80490
O530        O  0.23254714  0.40703603  0.71631223    -0.80490
O531        O  0.30748644  0.06305913  0.69104381    -0.80440
O532        O  0.26674001  0.43710166  0.68035751    -0.80560
O533        O  0.32216835  0.04200171  0.74844792    -0.80480
O534        O  0.28870529  0.00160371  0.66501804    -0.80460
O535        O  0.28273883  0.42959854  0.76953832    -0.80500
C536        C  0.30934390  0.44017965  0.74907465     1.09230
C537        C  0.27617184  0.99113285  0.63296944     1.09110
C538        C  0.24994019  0.40876230  0.68542401     1.09250
C539        C  0.33002148  0.06091603  0.71742299     1.09130
O540        O  0.26082177  0.04518072  0.80095400    -0.80460
O541        O  0.18582867  0.44941343  0.68942243    -0.80540
O542        O  0.22198522  0.46318843  0.81148121    -0.80480
O543        O  0.23607765  0.05906864  0.68313015    -0.80460
O544        O  0.19732999  0.01712326  0.68814312    -0.80510
O545        O  0.23984887  0.51856950  0.80694723    -0.80470
O546        O  0.26107429  0.07572489  0.74873897    -0.80430
O547        O  0.17957688  0.45452225  0.75101846    -0.80500
Co548      Co  0.28255800  0.50393411  0.76988966     1.51530
Co549      Co  0.23298715  0.48029416  0.68447136     1.51690
Co550      Co  0.23089784  0.44292105  0.76042599     1.51570
Co551      Co  0.27271011  0.03248268  0.71107453     1.51470
O552        O  0.24100238  0.49374100  0.73621128    -1.42400
C553        C  0.26043337  0.07641009  0.78497203     1.09150
C554        C  0.16751291  0.44337758  0.72066815     1.09240
C555        C  0.21560313  0.49586587  0.81812114     1.09180
C556        C  0.20386513  0.04964488  0.68721857     1.09160
C557        C  0.37279361  0.10106227  0.74524799    -0.06110
C558        C  0.36287698  0.08364484  0.71335173    -0.00180
C559        C  0.38146341  0.09199221  0.67828702    -0.08750
C560        C  0.40665946  0.12046129  0.67649599    -0.06130
C561        C  0.41459678  0.13978580  0.70883529    -0.00190
C562        C  0.39834427  0.12813532  0.74362170    -0.08660
C563        C  0.41001171  0.14248723  0.77998502     0.61720
H564        H  0.35887571  0.09425077  0.77164533     0.12410
H565        H  0.41867331  0.12884121  0.64961422     0.12420
C566        C  0.37510546  0.07088520  0.64302640     0.61950
F567        F  0.39488913  0.12401314  0.81018292    -0.23220
F568        F  0.39888630  0.17803141  0.78281517    -0.20540
F569        F  0.44762319  0.13779865  0.78108588    -0.20220
F570        F  0.34132603  0.08037608  0.62804474    -0.20270
F571        F  0.37653420  0.03457052  0.65198200    -0.20600
F572        F  0.40155664  0.07727223  0.61542169    -0.23270
C573        C  0.11458439  0.36121808  0.75146859    -0.06110
C574        C  0.08358034  0.36316170  0.72878738    -0.00180
C575        C  0.07757792  0.39473836  0.70571783    -0.08750
C576        C  0.10565958  0.42007905  0.70266175    -0.06130
C577        C  0.13723542  0.41720186  0.72502875    -0.00190
C578        C  0.13905038  0.38907794  0.75342949    -0.08660
C579        C  0.16636688  0.38698837  0.78600766     0.61720
H580        H  0.11997678  0.33688828  0.76781334     0.12410
H581        H  0.10212152  0.44271984  0.68334261     0.12420
C582        C  0.04271121  0.40368192  0.68430876     0.61950
F583        F  0.16263390  0.35652449  0.80875819    -0.23220
F584        F  0.16092945  0.41638106  0.80865228    -0.20540
F585        F  0.20183727  0.38574123  0.77310321    -0.20220
F586        F  0.02306408  0.43034094  0.70300220    -0.20270
F587        F  0.02088689  0.37470714  0.68119674    -0.20600
F588        F  0.05103706  0.41631455  0.64813616    -0.23270
C589        C  0.21311325  0.33375722  0.62152380    -0.06110
C590        C  0.22536254  0.34480324  0.58525086    -0.00180
C591        C  0.24852931  0.37512116  0.58318799    -0.08750
C592        C  0.25521538  0.39438603  0.61624109    -0.06130
C593        C  0.24331640  0.38357164  0.65261153    -0.00190
C594        C  0.22370182  0.35102357  0.65514841    -0.08660
C595        C  0.21590957  0.33274803  0.69289090     0.61720
H596        H  0.19763039  0.30960029  0.62366134     0.12410
H597        H  0.27166455  0.41763779  0.61396227     0.12420
C598        C  0.26981164  0.38568389  0.54728903     0.61950
F599        F  0.20716649  0.29729475  0.68891794    -0.23220
F600        F  0.18673364  0.35017342  0.70993161    -0.20540
F601        F  0.24621659  0.33329600  0.71579859    -0.20220
F602        F  0.24745752  0.38772097  0.51634614    -0.20270
F603        F  0.29828748  0.36111101  0.54099056    -0.20600
F604        F  0.28501302  0.41866608  0.54997222    -0.23270
C605        C  0.27843778  0.14231830  0.79687734    -0.06110
C606        C  0.25965948  0.11109132  0.80904599    -0.00180
C607        C  0.24339677  0.11277434  0.84621844    -0.08750
C608        C  0.24633470  0.14368835  0.86846229    -0.06130
C609        C  0.26550872  0.17405931  0.85726674    -0.00190
C610        C  0.28164378  0.17343365  0.82019766    -0.08660
C611        C  0.30142992  0.20579933  0.80520936     0.61720
H612        H  0.29141450  0.14198279  0.76911799     0.12410
H613        H  0.23316896  0.14418484  0.89598395     0.12420
C614        C  0.22055982  0.08299017  0.86248853     0.61950
F615        F  0.31456563  0.20112528  0.76862650    -0.23220
F616        F  0.33069635  0.21196979  0.82808757    -0.20540
F617        F  0.27770261  0.23548397  0.80515162    -0.20220
F618        F  0.24217745  0.05258432  0.86953874    -0.20270
F619        F  0.19368119  0.07699634  0.83687599    -0.20600
F620        F  0.20351431  0.09126701  0.89652695    -0.23270
C621        C  0.12076918  0.25600274  0.89149718    -0.06110
C622        C  0.14043336  0.22299863  0.89693687    -0.00180
C623        C  0.13774232  0.19842293  0.86652154    -0.08750
C624        C  0.11865721  0.20901119  0.83253030    -0.06130
C625        C  0.09948154  0.24227755  0.82784562    -0.00190
C626        C  0.10116981  0.26626871  0.85861196    -0.08660
C627        C  0.08301641  0.30354963  0.85770372     0.61720
H628        H  0.12068098  0.27500890  0.91390719     0.12410
H629        H  0.11700267  0.18991777  0.81009240     0.12420
C630        C  0.15091424  0.15986773  0.86825261     0.61950
F631        F  0.09172476  0.32322796  0.88857454    -0.23220
F632        F  0.04557480  0.30176077  0.85793234    -0.20540
F633        F  0.09425332  0.32191290  0.82569285    -0.20220
F634        F  0.16520747  0.14970399  0.90278698    -0.20270
F635        F  0.17668955  0.15469429  0.83980069    -0.20600
F636        F  0.12194505  0.13810120  0.86184898    -0.23270
C637        C  0.36161364  0.26389175  0.62092512    -0.06110
C638        C  0.39819229  0.25625429  0.61065155    -0.00180
C639        C  0.40586135  0.25339103  0.57055050    -0.08750
C640        C  0.37759045  0.26100918  0.54353082    -0.06130
C641        C  0.34081516  0.26823457  0.55390839    -0.00190
C642        C  0.33292014  0.26806179  0.59392504    -0.08660
C643        C  0.29515163  0.27686384  0.60924232     0.61720
H644        H  0.35534255  0.26577002  0.65089466     0.12410
H645        H  0.38372715  0.25949274  0.51352893     0.12420
C646        C  0.44334410  0.24104334  0.55536585     0.61950
F647        F  0.29144873  0.26729524  0.64725123    -0.23220
F648        F  0.26869563  0.25957704  0.58997126    -0.20540
F649        F  0.28999089  0.31330065  0.60566118    -0.20220
F650        F  0.45042102  0.20567121  0.56622349    -0.20270
F651        F  0.47031461  0.26193100  0.56893086    -0.20600
F652        F  0.44541663  0.24317409  0.51617706    -0.23270
C653        C  0.35940178  0.13592550  0.98919379    -0.06110
C654        C  0.32586906  0.12668040  0.97319515    -0.00180
C655        C  0.32352129  0.09053672  0.96210183    -0.08750
C656        C  0.35473959  0.06657382  0.96599949    -0.06130
C657        C  0.38949821  0.07830152  0.47653621    -0.00190
C658        C  0.39162267  0.11449669  0.48749067    -0.08660
C659        C  0.42596957  0.13336555  0.49805294     0.61720
H660        H  0.36341293  0.16333965  0.49762451     0.12410
H661        H  0.35274442  0.03890440  0.95834792     0.12420
C662        C  0.29013938  0.07798384  0.94289993     0.61950
F663        F  0.42951073  0.16391628  0.47532629    -0.23220
F664        F  0.45750569  0.11300076  0.49355867    -0.20540
F665        F  0.42270987  0.14352310  0.53534644    -0.20220
F666        F  0.28867342  0.09491847  0.90802996    -0.20270
F667        F  0.25878498  0.08630022  0.96370783    -0.20600
F668        F  0.29179334  0.04139947  0.93742822    -0.23270
C669        C  0.09389701  0.40767977  0.97719416    -0.06110
C670        C  0.07893037  0.41116618  0.94080284    -0.00180
C671        C  0.10064580  0.39803673  0.91010756    -0.08750
C672        C  0.13475263  0.37902137  0.91736434    -0.06130
C673        C  0.14927353  0.37456633  0.95419616    -0.00190
C674        C  0.12868079  0.39078271  0.98419104    -0.08660
C675        C  0.14268882  0.38958888  0.52402529     0.61720
H676        H  0.07795776  0.41863964  0.00054893     0.12410
H677        H  0.14987873  0.36661245  0.89428348     0.12420
C678        C  0.08691130  0.40293555  0.87002081     0.61950
F679        F  0.12323479  0.41337141  0.54677656    -0.23220
F680        F  0.17876095  0.39895053  0.52422656    -0.20540
F681        F  0.13952750  0.35535080  0.53899853    -0.20220
F682        F  0.08669487  0.43870424  0.85915788    -0.20270
F683        F  0.05195487  0.39027397  0.86753620    -0.20600
F684        F  0.10892512  0.38467999  0.84483824    -0.23270
C685        C  0.17351955  0.49625121  0.87580430    -0.06110
C686        C  0.17921935  0.50635792  0.83774335    -0.00180
C687        C  0.14822126  0.02172237  0.81848583    -0.08750
C688        C  0.11357321  0.02499947  0.83707651    -0.06130
C689        C  0.10712614  0.01421540  0.87507646    -0.00190
C690        C  0.13885919  0.50006605  0.89494200    -0.08660
C691        C  0.13982316  0.48733545  0.93567749     0.61720
H692        H  0.19673365  0.48438511  0.89094280     0.12410
H693        H  0.09065847  0.03611332  0.82092596     0.12420
C694        C  0.14903917  0.03466277  0.77773931     0.61950
F695        F  0.15250592  0.45218591  0.93734689    -0.23220
F696        F  0.10652849  0.48963863  0.95415139    -0.20540
F697        F  0.16463557  0.50732892  0.95420170    -0.20220
F698        F  0.12720805  0.01316745  0.75710421    -0.20270
F699        F  0.18371895  0.03388000  0.76239679    -0.20600
F700        F  0.13537482  0.06967952  0.77512280    -0.23270
C701        C  0.33600960  0.47934852  0.54039707    -0.06110
C702        C  0.36778589  0.46153229  0.55523482    -0.00180
C703        C  0.36707804  0.45211713  0.59499059    -0.08750
C704        C  0.33574046  0.46057950  0.61714321    -0.06130
C705        C  0.30505840  0.47985679  0.60314128    -0.00190
C706        C  0.30484159  0.48892026  0.56380552    -0.08660
C707        C  0.27176828  0.00922193  0.54764669     0.61720
H708        H  0.33658983  0.48774856  0.51082013     0.12410
H709        H  0.33597016  0.45306539  0.64705432     0.12420
C710        C  0.39838961  0.43443297  0.61770914     0.61950
F711        F  0.27679970  0.01687176  0.50947509    -0.23220
F712        F  0.26609194  0.04114534  0.56613052    -0.20540
F713        F  0.24096709  0.98902105  0.55203521    -0.20220
F714        F  0.43023072  0.42780113  0.59755302    -0.20270
F715        F  0.38710238  0.40208996  0.63299801    -0.20600
F716        F  0.40678783  0.45631862  0.64711446    -0.23270
C717        C  0.03076532  0.37792861  0.57731429    -0.06110
C718        C  0.99457097  0.38185900  0.56353320    -0.00180
C719        C  0.46881795  0.35630453  0.57650215    -0.08750
C720        C  0.47941291  0.33044620  0.60397795    -0.06130
C721        C  0.01533952  0.32532867  0.61769247    -0.00190
C722        C  0.04196382  0.34918608  0.60303033    -0.08660
C723        C  0.08201746  0.34369101  0.61269631     0.61720
H724        H  0.05075754  0.39625151  0.56614521     0.12410
H725        H  0.45882235  0.31227221  0.61366047     0.12420
C726        C  0.43127171  0.35180426  0.55873612     0.61950
F727        F  0.10175414  0.37327133  0.60245767    -0.23220
F728        F  0.09650724  0.31439565  0.59387315    -0.20540
F729        F  0.08648195  0.33791759  0.65095218    -0.20220
F730        F  0.43637199  0.33325021  0.52563969    -0.20270
F731        F  0.41286762  0.38386173  0.55077230    -0.20600
F732        F  0.40815973  0.33262323  0.58236528    -0.23270
C733        C  0.45111582  0.16934892  0.84717077    -0.06110
C734        C  0.48204597  0.18781305  0.83462463    -0.00180
C735        C  0.51487574  0.17689280  0.85281790    -0.08750
C736        C  0.51942077  0.14067682  0.86607749    -0.06130
C737        C  0.48935503  0.11851688  0.87272413    -0.00190
C738        C  0.45418373  0.13513397  0.86623529    -0.08660
C739        C  0.42066755  0.11886679  0.88347080     0.61720
H740        H  0.42457217  0.18188591  0.84208430     0.12410
H741        H  0.04565838  0.13175668  0.87746160     0.12420
C742        C  0.02956701  0.20345142  0.87943136     0.61950
F743        F  0.38921939  0.14014773  0.87833413    -0.23220
F744        F  0.42632217  0.11582810  0.92132038    -0.20540
F745        F  0.41565042  0.08532451  0.86917793    -0.20220
F746        F  0.00745503  0.20469390  0.91158694    -0.20270
F747        F  0.02928478  0.23711221  0.86299300    -0.20600
F748        F  0.06451887  0.19350672  0.89043861    -0.23270
C749        C  0.14238100  0.05858766  0.67485150    -0.06110
C750        C  0.17332141  0.07548355  0.68613937    -0.00180
C751        C  0.18278145  0.10541774  0.66545396    -0.08750
C752        C  0.17896151  0.10326682  0.62670153    -0.06130
C753        C  0.15448122  0.07809724  0.61104449    -0.00190
C754        C  0.14204164  0.05050235  0.63632104    -0.08660
C755        C  0.14159629  0.01057952  0.62702368     0.61720
H756        H  0.13092028  0.03983511  0.69510052     0.12410
H757        H  0.18654098  0.12719373  0.61141847     0.12420
C758        C  0.20109791  0.13623543  0.68311726     0.61950
F759        F  0.13466377  0.49310511  0.66472982    -0.23220
F760        F  0.17380356  0.00005382  0.60906438    -0.20540
F761        F  0.11260067  0.00138547  0.60591617    -0.20220
F762        F  0.23624784  0.13902649  0.66858187    -0.20270
F763        F  0.20278811  0.13138002  0.72208518    -0.20600
F764        F  0.18128145  0.16768847  0.67508905    -0.23270
C765        C  0.12019473  0.16174295  0.60489995    -0.06110
C766        C  0.11076928  0.12572266  0.61035177    -0.00180
C767        C  0.08439778  0.11674821  0.64084939    -0.08750
C768        C  0.06899661  0.14470122  0.66031088    -0.06130
C769        C  0.07249922  0.17920407  0.64710338    -0.00190
C770        C  0.09965711  0.18911840  0.62123626    -0.08660
C771        C  0.10710389  0.22797234  0.61186510     0.61720
H772        H  0.14320894  0.16870774  0.58755268     0.12410
H773        H  0.04972069  0.13949597  0.68353043     0.12420
C774        C  0.06509793  0.08183574  0.65339559     0.61950
F775        F  0.13617649  0.23150222  0.58667780    -0.23220
F776        F  0.11542960  0.24519860  0.64464820    -0.20540
F777        F  0.07644400  0.24427171  0.59558585    -0.20220
F778        F  0.07255803  0.07367232  0.69098343    -0.20270
F779        F  0.07237201  0.05208149  0.63252377    -0.20600
F780        F  0.02764513  0.08733399  0.65221837    -0.23270
C781        C  0.15656583  0.16919615  0.51659251    -0.06110
C782        C  0.19248803  0.16949439  0.52994029    -0.00180
C783        C  0.21028501  0.13710329  0.54206574    -0.08750
C784        C  0.18860938  0.10700901  0.54546084    -0.06130
C785        C  0.14994812  0.11224110  0.54729080    -0.00190
C786        C  0.13537147  0.13958778  0.52247102    -0.08660
C787        C  0.10029739  0.13928483  0.49992749     0.61720
H788        H  0.14455167  0.19197712  0.00194364     0.12410
H789        H  0.20162400  0.08276432  0.55696310     0.12420
C790        C  0.24944615  0.13347988  0.55650195     0.61950
F791        F  0.10528711  0.15312211  0.96491534    -0.23220
F792        F  0.07364049  0.16111910  0.51656109    -0.20540
F793        F  0.08745307  0.10501719  0.99665416    -0.20220
F794        F  0.26556209  0.16588628  0.56109121    -0.20270
F795        F  0.27051524  0.11334392  0.53178159    -0.20600
F796        F  0.25013980  0.11583866  0.59139989    -0.23270
C797        C  0.06666979  0.02674722  0.54994402    -0.06110
C798        C  0.03279822  0.04517251  0.55415805    -0.00180
C799        C  0.02971519  0.08064196  0.56480919    -0.08750
C800        C  0.06156534  0.09772508  0.56761950    -0.06130
C801        C  0.09630155  0.07913735  0.56726983    -0.00190
C802        C  0.09888006  0.04521120  0.55142152    -0.08660
C803        C  0.13244834  0.03110003  0.53009215     0.61720
H804        H  0.06730608  0.00023657  0.53796354     0.12410
H805        H  0.05867525  0.12623436  0.57193505     0.12420
C806        C  0.49432022  0.10311911  0.56832625     0.61950
F807        F  0.13195112  0.49615107  0.52207560    -0.23220
F808        F  0.16412665  0.03403116  0.54966783    -0.20540
F809        F  0.13542545  0.05081832  0.49664905    -0.20220
F810        F  0.49027624  0.11676016  0.60406599    -0.20270
F811        F  0.46367449  0.08383451  0.56157162    -0.20600
F812        F  0.49612027  0.13215750  0.54337492    -0.23270
C813        C  0.35815688  0.43366556  0.87612669    -0.06110
C814        C  0.36589859  0.39718110  0.88553343    -0.00180
C815        C  0.38586720  0.39242966  0.91913104    -0.08750
C816        C  0.41662668  0.41318732  0.92162127    -0.06130
C817        C  0.41774906  0.44554576  0.90034945    -0.00190
C818        C  0.38519078  0.45859743  0.88290722    -0.08660
C819        C  0.37994621  0.49763149  0.87091018     0.61720
H820        H  0.33665476  0.44171904  0.85692117     0.12410
H821        H  0.43776577  0.40504515  0.94115243     0.12420
C822        C  0.36919915  0.37609500  0.95483400     0.61950
F823        F  0.34475100  0.00538098  0.85866418    -0.23220
F824        F  0.40451932  0.00613005  0.84253413    -0.20540
F825        F  0.38603842  0.01883500  0.90165961    -0.20220
F826        F  0.33479052  0.36371997  0.94832620    -0.20270
F827        F  0.36530933  0.40173404  0.98215772    -0.20600
F828        F  0.39117600  0.34828033  0.96892598    -0.23270
C829        C  0.35559970  0.31294281  0.89405276    -0.06110
C830        C  0.34388048  0.33920018  0.86732430    -0.00180
C831        C  0.30743619  0.33612134  0.85318834    -0.08750
C832        C  0.29104179  0.30268455  0.85785595    -0.06130
C833        C  0.30077916  0.28161943  0.88966215    -0.00190
C834        C  0.33759252  0.28145419  0.90017980    -0.08660
C835        C  0.35745587  0.25010468  0.92000859     0.61720
H836        H  0.37890104  0.31693051  0.91085328     0.12410
H837        H  0.26351330  0.30024585  0.84737115     0.12420
C838        C  0.28164925  0.36700468  0.84071628     0.61950
F839        F  0.39340653  0.25727518  0.92747757    -0.23220
F840        F  0.35800624  0.22043141  0.89752680    -0.20540
F841        F  0.34081560  0.24240132  0.95400789    -0.20220
F842        F  0.26882989  0.36175817  0.80484070    -0.20270
F843        F  0.29726640  0.39965017  0.84117227    -0.20600
F844        F  0.25176370  0.36859625  0.86524363    -0.23270
C845        C  0.37890381  0.41475427  0.80173499    -0.06110
C846        C  0.36448164  0.38113469  0.81278070    -0.00180
C847        C  0.34895813  0.36153528  0.78212613    -0.08750
C848        C  0.33723362  0.38162786  0.75013782    -0.06130
C849        C  0.34253842  0.41829106  0.74754334    -0.00190
C850        C  0.37100179  0.43209205  0.76764475    -0.08660
C851        C  0.38370662  0.46999930  0.76100802     0.61720
H852        H  0.39686987  0.42838560  0.81963672     0.12410
H853        H  0.31945631  0.36990599  0.72990335     0.12420
C854        C  0.34437506  0.32122624  0.77801219     0.61950
F855        F  0.41987415  0.47284179  0.77085561    -0.23220
F856        F  0.36280654  0.49293502  0.78319235    -0.20540
F857        F  0.38069669  0.98037396  0.72351347    -0.20220
F858        F  0.30793180  0.31388594  0.77379182    -0.20270
F859        F  0.35777648  0.30007494  0.80730457    -0.20600
F860        F  0.36231817  0.31056465  0.74523111    -0.23270
C861        C  0.42685646  0.29805300  0.82963093    -0.06110
C862        C  0.43213770  0.31592228  0.79455877    -0.00180
C863        C  0.44075111  0.35311093  0.79454328    -0.08750
C864        C  0.43797323  0.37002423  0.82979694    -0.06130
C865        C  0.41386309  0.35451395  0.85625646    -0.00190
C866        C  0.42462402  0.31819657  0.86210949    -0.08660
C867        C  0.45246301  0.30846873  0.89226772     0.61720
H868        H  0.42762733  0.26910412  0.83217219     0.12410
H869        H  0.44509291  0.39759102  0.83263959     0.12420
C870        C  0.44578427  0.37614032  0.75865604     0.61950
F871        F  0.48504150  0.32394383  0.88255147    -0.23220
F872        F  0.45835238  0.27170210  0.89564626    -0.20540
F873        F  0.44141342  0.32117751  0.92700728    -0.20220
F874        F  0.41627476  0.37319557  0.73522023    -0.20270
F875        F  0.47629292  0.36652946  0.73871099    -0.20600
F876        F  0.44966709  0.41162724  0.76679962    -0.23270
C877        C  0.37151442  0.86793846  0.35522858    -0.02810
C878        C  0.12809311  0.59795798  0.08398436    -0.02810
O879        O  0.46815137  0.97791938  0.37419491    -0.80460
O880        O  0.41971288  0.52201328  0.99154373    -0.80490
O881        O  0.41036889  0.95328145  0.49827404    -0.80490
O882        O  0.51526851  0.58410916  0.42539215    -0.80440
O883        O  0.42893552  0.97728970  0.05041680    -0.80560
O884        O  0.48305716  0.55219817  0.38779271    -0.80480
O885        O  0.45229376  0.56055855  0.45847513    -0.80460
O886        O  0.46226025  0.97644897  0.43464676    -0.80500
C887        C  0.44956874  0.96787859  0.40256949     1.09230
C888        C  0.42230500  0.55223356  0.97530342     1.09110
C889        C  0.40351957  0.96282928  0.53367806     1.09250
C890        C  0.49627026  0.58334510  0.39577911     1.09130
O891        O  0.04177460  0.50982756  0.36391853    -0.80460
O892        O  0.49241789  0.94325756  0.03148012    -0.80540
O893        O  0.01663758  0.92343880  0.46179724    -0.80480
O894        O  0.02070449  0.54378022  0.99215396    -0.80460
O895        O  0.48271131  0.51848984  0.03451141    -0.80510
O896        O  0.03603653  0.95288805  0.41036591    -0.80470
O897        O  0.05533056  0.52066348  0.42333448    -0.80430
O898        O  0.46397801  0.89947179  0.50757098    -0.80500
Co899      Co  0.00681604  0.99996435  0.40380893     1.51530
Co900      Co  0.45771906  0.98482407  0.00694828     1.51690
Co901      Co  0.46464463  0.93975176  0.47430767     1.51570
Co902      Co  0.50134176  0.53744533  0.44339173     1.51470
O903        O  0.48152458  0.99018897  0.45631872    -1.42400
C904        C  0.06656697  0.51541698  0.38823027     1.09150
C905        C  0.98368653  0.90959513  0.03329243     1.09240
C906        C  0.04140910  0.92998924  0.43717780     1.09180
C907        C  0.01036176  0.53523290  0.02528246     1.09160
O908        O  0.27347210  0.82570792  0.42769496    -0.80460
O909        O  0.18988654  0.69729472  0.44067207    -0.80490
O910        O  0.28992801  0.70969139  0.40957058    -0.80490
O911        O  0.16631872  0.81394405  0.46549365    -0.80440
O912        O  0.23539364  0.71717724  0.39785709    -0.80560
O913        O  0.21213450  0.85014039  0.46933591    -0.80480
O914        O  0.16160504  0.74771765  0.45383933    -0.80360
O915        O  0.25961090  0.77318326  0.44471994    -0.80500
C916        C  0.27617617  0.79337300  0.42031769     1.09230
C917        C  0.16477497  0.72088874  0.43293373     1.09110
C918        C  0.26486754  0.70452754  0.38612309     1.09250
C919        C  0.17820704  0.84485775  0.46291155     1.09130
O920        O  0.25088246  0.81384050  0.03429870    -0.80460
O921        O  0.26607272  0.65968691  0.45272008    -0.80540
O922        O  0.28909873  0.74637795  0.51933087    -0.80480
O923        O  0.18986958  0.73038752  0.02907972    -0.80460
O924        O  0.24008788  0.70357139  0.50806571    -0.80510
O925        O  0.30998815  0.79600668  0.49682041    -0.80470
O926        O  0.19331529  0.80549075  0.04125181    -0.80430
O927        O  0.30946450  0.68722210  0.48035873    -0.80500
Co928      Co  0.25920052  0.81780317  0.48024374     1.51530
Co929      Co  0.24103096  0.71191168  0.45408274     1.51690
Co930      Co  0.28209996  0.72979317  0.46587033     1.51570
Co931      Co  0.18358728  0.77252727  0.49590783     1.51470
O932        O  0.23454712  0.76693138  0.46583146    -1.42400
C933        C  0.22218991  0.82008825  0.05208784     1.09150
C934        C  0.29831998  0.65804813  0.46838832     1.09240
C935        C  0.31159034  0.77098943  0.52261661     1.09180
C936        C  0.20991707  0.70265756  0.02509445     1.09160
O937        O  0.42520180  0.76315951  0.26023033    -0.80460
O938        O  0.05001633  0.78047716  0.15980330    -0.80490
O939        O  0.02848918  0.82873706  0.23741441    -0.80490
O940        O  0.45347946  0.72803982  0.13466881    -0.80440
O941        O  0.08005356  0.80056532  0.22609621    -0.80560
O942        O  0.42621507  0.76015998  0.17668460    -0.80480
O943        O  0.49001696  0.78541199  0.16242609    -0.80460
O944        O  0.46183942  0.80124267  0.24003536    -0.80500
C945        C  0.43624829  0.79449584  0.26145832     1.09230
C946        C  0.01976288  0.79608218  0.14871725     1.09110
C947        C  0.06224146  0.82965553  0.22973472     1.09250
C948        C  0.42658538  0.74813758  0.14208498     1.09130
O949        O  0.41375400  0.70255596  0.21952731    -0.80460
O950        O  0.07796196  0.73242522  0.26304410    -0.80540
O951        O  0.48605218  0.74848421  0.30437580    -0.80480
O952        O  0.02230254  0.71903221  0.14797095    -0.80460
O953        O  0.05041850  0.70691045  0.19961842    -0.80510
O954        O  0.47230120  0.70295805  0.26880436    -0.80470
O955        O  0.46549708  0.68287929  0.19461997    -0.80430
O956        O  0.05243762  0.77670899  0.29452007    -0.80500
Co957      Co  0.45426714  0.73261208  0.22394348     1.51530
Co958      Co  0.06158641  0.75381430  0.21201104     1.51690
Co959      Co  0.00563896  0.78825161  0.26730571     1.51570
Co960      Co  0.48102145  0.73646828  0.17928840     1.51470
O961        O  0.50726925  0.75332491  0.22617932    -1.42400
C962        C  0.43213914  0.67633327  0.20646510     1.09150
C963        C  0.07556559  0.75058534  0.29325124     1.09240
C964        C  0.48027547  0.71481071  0.30106139     1.09180
C965        C  0.04830566  0.70412933  0.16513261     1.09160
O966        O  0.30994939  0.97199996  0.23737415    -0.80460
O967        O  0.24218265  0.98488069  0.13039964    -0.80490
O968        O  0.23270675  0.90680404  0.21685511    -0.80490
O969        O  0.30816379  0.56278994  0.19091374    -0.80440
O970        O  0.26689004  0.93681005  0.18082512    -0.80560
O971        O  0.32235430  0.54199186  0.24853035    -0.80480
O972        O  0.28908991  0.50157232  0.16479655    -0.80460
O973        O  0.28291494  0.92966321  0.26991691    -0.80500
C974        C  0.30944163  0.94023086  0.24933080     1.09230
C975        C  0.27650933  0.49150727  0.13260897     1.09110
C976        C  0.25008375  0.90847076  0.18593742     1.09250
C977        C  0.33045194  0.56077487  0.21748435     1.09130
O978        O  0.26070769  0.54516242  0.30067985    -0.80460
O979        O  0.18595743  0.94892189  0.19003372    -0.80540
O980        O  0.22218076  0.96326209  0.31185776    -0.80480
O981        O  0.23707126  0.55945329  0.18258097    -0.80460
O982        O  0.19766003  0.51816276  0.18781803    -0.80510
O983        O  0.23991199  0.01865896  0.30705759    -0.80470
O984        O  0.26148100  0.57575351  0.24850236    -0.80430
O985        O  0.17968956  0.95438831  0.25157970    -0.80500
Co986      Co  0.28259504  0.00396541  0.27002112     1.51530
Co987      Co  0.23297644  0.97987296  0.18486540     1.51690
Co988      Co  0.23103608  0.94283968  0.26088450     1.51570
Co989      Co  0.27314271  0.53248216  0.21080669     1.51470
O990        O  0.24098581  0.99360912  0.23651101    -1.42400
C991        C  0.26054023  0.57640531  0.28474525     1.09150
C992        C  0.16758630  0.94317901  0.22128480     1.09240
C993        C  0.21570063  0.99596185  0.31830749     1.09180
C994        C  0.20476065  0.55058908  0.18714111     1.09160
C995        C  0.37226545  0.60169400  0.24535453    -0.06110
C996        C  0.36315564  0.58366855  0.21359638    -0.00180
C997        C  0.38214443  0.59176492  0.17869786    -0.08750
C998        C  0.40717360  0.62037475  0.17693686    -0.06130
C999        C  0.41444378  0.64016235  0.20913956    -0.00190
C1000       C  0.39759813  0.62894321  0.24378118    -0.08660
C1001       C  0.40887628  0.64350385  0.28018522     0.61720
H1002       H  0.35795376  0.59511505  0.27159116     0.12410
H1003       H  0.41956856  0.62849389  0.15015521     0.12420
C1004       C  0.37628387  0.57033103  0.14355439     0.61950
F1005       F  0.39308278  0.62549317  0.31029443    -0.23220
F1006       F  0.39821348  0.67919063  0.28271987    -0.20540
F1007       F  0.44640639  0.63830581  0.28175724    -0.20220
F1008       F  0.34263765  0.57955683  0.12811093    -0.20270
F1009       F  0.37777731  0.53408434  0.15283284    -0.20600
F1010       F  0.40299148  0.57661955  0.11619670    -0.23270
C1011       C  0.11450636  0.86125613  0.25206620    -0.06110
C1012       C  0.08350395  0.86331644  0.22938500    -0.00180
C1013       C  0.07749902  0.89496311  0.20642415    -0.08750
C1014       C  0.10557487  0.92030169  0.20349384    -0.06130
C1015       C  0.13721102  0.91720212  0.22573473    -0.00190
C1016       C  0.13902640  0.88903966  0.25406226    -0.08660
C1017       C  0.16639157  0.88685923  0.28659211     0.61720
H1018       H  0.11988312  0.83688162  0.26834233     0.12410
H1019       H  0.10201383  0.94311791  0.18439247     0.12420
C1020       C  0.04269147  0.90393682  0.18492634     0.61950
F1021       F  0.16262826  0.85637941  0.30931170    -0.23220
F1022       F  0.16104932  0.91623610  0.30927815    -0.20540
F1023       F  0.20184056  0.88557379  0.27362043    -0.20220
F1024       F  0.02300615  0.93059539  0.20357996    -0.20270
F1025       F  0.02086704  0.87497364  0.18172425    -0.20600
F1026       F  0.05112510  0.91657995  0.14878289    -0.23270
C1027       C  0.21313233  0.83343312  0.12203064    -0.06110
C1028       C  0.22538087  0.84444966  0.08574162    -0.00180
C1029       C  0.24848177  0.87483194  0.08366955    -0.08750
C1030       C  0.25523979  0.89406472  0.11673389    -0.06130
C1031       C  0.24336541  0.88327073  0.15311960    -0.00190
C1032       C  0.22369449  0.85074650  0.15565535    -0.08660
C1033       C  0.21577561  0.83256881  0.19341702     0.61720
H1034       H  0.19764869  0.80927858  0.12418030     0.12410
H1035       H  0.27173175  0.91728727  0.11444360     0.12420
C1036       C  0.26969436  0.88548156  0.04775293     0.61950
F1037       F  0.20678171  0.79717699  0.18950320    -0.23220
F1038       F  0.18671484  0.85020862  0.21042746    -0.20540
F1039       F  0.24609839  0.83295268  0.21631877    -0.20220
F1040       F  0.24737387  0.88721312  0.01677663    -0.20270
F1041       F  0.29838947  0.86111722  0.04157872    -0.20600
F1042       F  0.28456328  0.91863671  0.05033319    -0.23270
C1043       C  0.27851975  0.64233317  0.29675414    -0.06110
C1044       C  0.25976605  0.61107443  0.30888079    -0.00180
C1045       C  0.24349142  0.61272882  0.34605844    -0.08750
C1046       C  0.24642762  0.64362665  0.36835180    -0.06130
C1047       C  0.26562164  0.67401340  0.35720759    -0.00190
C1048       C  0.28171409  0.67343145  0.32011350    -0.08660
C1049       C  0.30141948  0.70584711  0.30512656     0.61720
H1050       H  0.29147404  0.64204572  0.26898326     0.12410
H1051       H  0.23322156  0.64410974  0.39585764     0.12420
C1052       C  0.22065995  0.58291668  0.36228716     0.61950
F1053       F  0.31451333  0.70122840  0.26851968    -0.23220
F1054       F  0.33069980  0.71205580  0.32797244    -0.20540
F1055       F  0.27763578  0.73548957  0.30512797    -0.20220
F1056       F  0.24231942  0.55254204  0.36937491    -0.20270
F1057       F  0.19381866  0.57685729  0.33663567    -0.20600
F1058       F  0.20355529  0.59119377  0.39629691    -0.23270
C1059       C  0.12095534  0.75605586  0.39168266    -0.06110
C1060       C  0.14054243  0.72300519  0.39706068    -0.00180
C1061       C  0.13768346  0.69841249  0.36669227    -0.08750
C1062       C  0.11853409  0.70904416  0.33275696    -0.06130
C1063       C  0.09937463  0.74233353  0.32815261    -0.00190
C1064       C  0.10114896  0.76630302  0.35892832    -0.08660
C1065       C  0.08290492  0.80355116  0.35815147     0.61720
H1066       H  0.12109771  0.77510576  0.41403758     0.12410
H1067       H  0.11679323  0.68996297  0.31031871     0.12420
C1068       C  0.15074410  0.65981204  0.36844107     0.61950
F1069       F  0.09157818  0.82314855  0.38908223    -0.23220
F1070       F  0.04546660  0.80172831  0.35841063    -0.20540
F1071       F  0.09407508  0.82201850  0.32618662    -0.20220
F1072       F  0.16497941  0.64959066  0.40299396    -0.20270
F1073       F  0.17653257  0.65454927  0.34001903    -0.20600
F1074       F  0.12170809  0.63813556  0.36201397    -0.23270
C1075       C  0.36153410  0.76398955  0.12113978    -0.06110
C1076       C  0.39812800  0.75642393  0.11089147    -0.00180
C1077       C  0.40581338  0.75350595  0.07079773    -0.08750
C1078       C  0.37754282  0.76104594  0.04376042    -0.06130
C1079       C  0.34074592  0.76817636  0.05411664    -0.00190
C1080       C  0.33283446  0.76797793  0.09413207    -0.08660
C1081       C  0.29505584  0.77663901  0.10948897     0.61720
H1082       H  0.35524158  0.76591195  0.15110244     0.12410
H1083       H  0.38369717  0.75951715  0.01376282     0.12420
C1084       C  0.44330344  0.74115433  0.05563928     0.61950
F1085       F  0.29130403  0.76656615  0.14735849    -0.23220
F1086       F  0.26858805  0.75966237  0.08992454    -0.20540
F1087       F  0.28997013  0.81311749  0.10644206    -0.20220
F1088       F  0.45033256  0.70575724  0.06645325    -0.20270
F1089       F  0.47027536  0.76201267  0.06926061    -0.20600
F1090       F  0.44541533  0.74333528  0.01645394    -0.23270
C1091       C  0.36026907  0.63631159  0.48798566    -0.06110
C1092       C  0.32647288  0.62678561  0.47273026    -0.00180
C1093       C  0.32400495  0.59051531  0.46214801    -0.08750
C1094       C  0.35515731  0.56651220  0.46636323    -0.06130
C1095       C  0.38946514  0.57810194  0.97676202    -0.00190
C1096       C  0.39114840  0.61394009  0.98899949    -0.08660
C1097       C  0.42526083  0.63273144  0.00037084     0.61720
H1098       H  0.36220533  0.66205768  0.00099228     0.12410
H1099       H  0.35305548  0.53874983  0.45909396     0.12420
C1100       C  0.29055236  0.57785798  0.44310333     0.61950
F1101       F  0.42821845  0.66433076  0.97923244    -0.23220
F1102       F  0.45700180  0.61299610  0.99446703    -0.20540
F1103       F  0.42215306  0.64109207  0.03821451    -0.20220
F1104       F  0.28877900  0.59483263  0.40825367    -0.20270
F1105       F  0.25927766  0.58602890  0.46409159    -0.20600
F1106       F  0.29232098  0.54128860  0.43755158    -0.23270
C1107       C  0.09380749  0.90751516  0.47769298    -0.06110
C1108       C  0.07880036  0.91098578  0.44131026    -0.00180
C1109       C  0.10046435  0.89776826  0.41061244    -0.08750
C1110       C  0.13450739  0.87862222  0.41786901    -0.06130
C1111       C  0.14907189  0.87422923  0.45468468    -0.00190
C1112       C  0.12858760  0.89058527  0.48466061    -0.08660
C1113       C  0.14274471  0.88954096  0.02438631     0.61720
H1114       H  0.07795196  0.91859858  0.50103968     0.12410
H1115       H  0.14958791  0.86614981  0.39479649     0.12420
C1116       C  0.08680204  0.90282437  0.37051439     0.61950
F1117       F  0.12325059  0.91328504  0.04714296    -0.23220
F1118       F  0.17874486  0.89916424  0.02432208    -0.20540
F1119       F  0.13992676  0.85532228  0.03953049    -0.20220
F1120       F  0.08668592  0.93862102  0.35977568    -0.20270
F1121       F  0.05181839  0.89025356  0.36792426    -0.20600
F1122       F  0.10882808  0.88462189  0.34530049    -0.23270
C1123       C  0.17361935  0.99615255  0.37591155    -0.06110
C1124       C  0.17932317  0.00646380  0.33792121    -0.00180
C1125       C  0.14811097  0.52133169  0.31820721    -0.08750
C1126       C  0.11346770  0.52452083  0.33676490    -0.06130
C1127       C  0.10707786  0.51390303  0.37479621    -0.00190
C1128       C  0.13897864  0.99987416  0.39507032    -0.08660
C1129       C  0.13988964  0.98655307  0.43560131     0.61720
H1130       H  0.19681137  0.98411687  0.39095477     0.12410
H1131       H  0.09050292  0.53542604  0.32054657     0.12420
C1132       C  0.14875943  0.53393093  0.27738625     0.61950
F1133       F  0.15235255  0.95134226  0.43665954    -0.23220
F1134       F  0.10656712  0.98878661  0.45402888    -0.20540
F1135       F  0.16488304  0.00601633  0.45452719    -0.20220
F1136       F  0.12694440  0.51211807  0.25709411    -0.20270
F1137       F  0.18338892  0.53317693  0.26192642    -0.20600
F1138       F  0.13492250  0.56887615  0.27450282    -0.23270
C1139       C  0.33587723  0.97951397  0.04067862    -0.06110
C1140       C  0.36767175  0.96171571  0.05549221    -0.00180
C1141       C  0.36694553  0.95216294  0.09521472    -0.08750
C1142       C  0.33555209  0.96044802  0.11735326    -0.06130
C1143       C  0.30484736  0.97970341  0.10338048    -0.00190
C1144       C  0.30467799  0.98896109  0.06408905    -0.08660
C1145       C  0.27214370  0.50944277  0.04722670     0.61720
H1146       H  0.33648364  0.98803833  0.01113776     0.12410
H1147       H  0.33575931  0.95283940  0.14724080     0.12420
C1148       C  0.39828212  0.93450237  0.11791342     0.61950
F1149       F  0.27726636  0.51716209  0.00907316    -0.23220
F1150       F  0.26645754  0.54132579  0.06577056    -0.20540
F1151       F  0.24131415  0.48926576  0.05151350    -0.20220
F1152       F  0.43017280  0.92806313  0.09777853    -0.20270
F1153       F  0.38709497  0.90206232  0.13304569    -0.20600
F1154       F  0.40655413  0.95630374  0.14743191    -0.23270
C1155       C  0.03061124  0.87831142  0.07774973    -0.06110
C1156       C  0.99443567  0.88219991  0.06390253    -0.00180
C1157       C  0.46870593  0.85657328  0.07679507    -0.08750
C1158       C  0.47928857  0.83072910  0.10428726    -0.06130
C1159       C  0.01518681  0.82568262  0.11808193    -0.00190
C1160       C  0.04180593  0.84955789  0.10345616    -0.08660
C1161       C  0.08185471  0.84403089  0.11312355     0.61720
H1162       H  0.05059605  0.89666601  0.06663072     0.12410
H1163       H  0.45872027  0.81251120  0.11391937     0.12420
C1164       C  0.43120876  0.85200707  0.05894605     0.61950
F1165       F  0.10163359  0.87355879  0.10281432    -0.23220
F1166       F  0.09629598  0.81467886  0.09435831    -0.20540
F1167       F  0.08631869  0.83832676  0.15139022    -0.20220
F1168       F  0.43643497  0.83359922  0.02577352    -0.20270
F1169       F  0.41269831  0.88403468  0.05110632    -0.20600
F1170       F  0.40813087  0.83264753  0.08243784    -0.23270
C1171       C  0.45115175  0.66927966  0.34741813    -0.06110
C1172       C  0.48200747  0.68791609  0.33498714    -0.00180
C1173       C  0.51482083  0.67712654  0.35332314    -0.08750
C1174       C  0.51949225  0.64093705  0.36667080    -0.06130
C1175       C  0.48955932  0.61854602  0.37300293    -0.00190
C1176       C  0.45433275  0.63494802  0.36623122    -0.08660
C1177       C  0.42077935  0.61814446  0.38268665     0.61720
H1178       H  0.42455816  0.68162583  0.34214266     0.12410
H1179       H  0.04568873  0.63217370  0.37825775     0.12420
C1180       C  0.02942570  0.70379651  0.37985851     0.61950
F1181       F  0.38936656  0.63965024  0.37840909    -0.23220
F1182       F  0.42631146  0.61370720  0.42039481    -0.20540
F1183       F  0.41581544  0.58517256  0.36701488    -0.20220
F1184       F  0.00729994  0.70507848  0.41200154    -0.20270
F1185       F  0.02906138  0.73739826  0.36330804    -0.20600
F1186       F  0.06440138  0.69397925  0.39089928    -0.23270
C1187       C  0.14306123  0.56083108  0.17688778    -0.06110
C1188       C  0.17471525  0.57704977  0.18707650    -0.00180
C1189       C  0.18403130  0.60673147  0.16591767    -0.08750
C1190       C  0.17901662  0.60446198  0.12734245    -0.06130
C1191       C  0.15432058  0.57898401  0.11248850    -0.00190
C1192       C  0.14181125  0.55204174  0.13857206    -0.08660
C1193       C  0.14026534  0.51195386  0.13026771     0.61720
H1194       H  0.13164418  0.54276940  0.19779646     0.12410
H1195       H  0.18627911  0.62827064  0.11162166     0.12420
C1196       C  0.20286581  0.63758532  0.18287530     0.61950
F1197       F  0.13641431  0.99144384  0.16223703    -0.23220
F1198       F  0.17265496  0.50000452  0.11365848    -0.20540
F1199       F  0.11172856  0.50306941  0.10835164    -0.20220
F1200       F  0.23771466  0.64015000  0.16750224    -0.20270
F1201       F  0.20538760  0.63296977  0.22180914    -0.20600
F1202       F  0.18299836  0.66905709  0.17506347    -0.23270
C1203       C  0.11963637  0.66237080  0.10469916    -0.06110
C1204       C  0.11053609  0.62632000  0.11088007    -0.00180
C1205       C  0.08473865  0.61759496  0.14199394    -0.08750
C1206       C  0.07003192  0.64565679  0.16170847    -0.06130
C1207       C  0.07277602  0.67999946  0.14775728    -0.00190
C1208       C  0.09916384  0.68982090  0.12099941    -0.08660
C1209       C  0.10605968  0.72863692  0.11086131     0.61720
H1210       H  0.14232717  0.66932227  0.08687833     0.12410
H1211       H  0.05141085  0.64057122  0.18553545     0.12420
C1212       C  0.06521403  0.58294132  0.15503894     0.61950
F1213       F  0.13446620  0.73207803  0.08484890    -0.23220
F1214       F  0.11507702  0.74632060  0.14313694    -0.20540
F1215       F  0.07489480  0.74454056  0.09520822    -0.20220
F1216       F  0.07300485  0.57480908  0.19254919    -0.20270
F1217       F  0.07183832  0.55302981  0.13425194    -0.20600
F1218       F  0.02781420  0.58893087  0.15437344    -0.23270
C1219       C  0.15679526  0.66833975  0.01612057    -0.06110
C1220       C  0.19270192  0.66870788  0.02950280    -0.00180
C1221       C  0.21034311  0.63638672  0.04206909    -0.08750
C1222       C  0.18842534  0.60652312  0.04620653    -0.06130
C1223       C  0.14980775  0.61210272  0.04822280    -0.00190
C1224       C  0.13532787  0.63902251  0.02282845    -0.08660
C1225       C  0.09945039  0.63903024  0.00168234     0.61720
H1226       H  0.14501609  0.69083383  0.50077027     0.12410
H1227       H  0.20130706  0.58238134  0.05808089     0.12420
C1228       C  0.24956547  0.63261566  0.05625820     0.61950
F1229       F  0.10157361  0.65502409  0.46760512    -0.23220
F1230       F  0.07323835  0.66011902  0.01996788    -0.20540
F1231       F  0.08614538  0.60533827  0.49806151    -0.20220
F1232       F  0.26611006  0.66489678  0.06013932    -0.20270
F1233       F  0.27021549  0.61187845  0.03171651    -0.20600
F1234       F  0.25027661  0.61551175  0.09144510    -0.23270
C1235       C  0.06781030  0.52620830  0.04932445    -0.06110
C1236       C  0.03363990  0.54396913  0.05381011    -0.00180
C1237       C  0.02978491  0.57901263  0.06561944    -0.08750
C1238       C  0.06126177  0.59647513  0.06945435    -0.06130
C1239       C  0.09640180  0.57863397  0.06862820    -0.00190
C1240       C  0.09970716  0.54502356  0.05189506    -0.08660
C1241       C  0.13410328  0.53118924  0.03171433     0.61720
H1242       H  0.06893074  0.49999668  0.03666952     0.12410
H1243       H  0.05760491  0.62480069  0.07440305     0.12420
C1244       C  0.49400831  0.60101526  0.06901072     0.61950
F1245       F  0.13106027  0.99567839  0.02203841    -0.23220
F1246       F  0.16473275  0.53279147  0.05324159    -0.20540
F1247       F  0.13904725  0.55198196  0.99925968    -0.20220
F1248       F  0.48909348  0.61374184  0.10502699    -0.20270
F1249       F  0.46372308  0.58162746  0.06117478    -0.20600
F1250       F  0.49586154  0.63062765  0.04483630    -0.23270
C1251       C  0.35808341  0.93383693  0.37648371    -0.06110
C1252       C  0.36579882  0.89734781  0.38588951    -0.00180
C1253       C  0.38573070  0.89258802  0.41951055    -0.08750
C1254       C  0.41649490  0.91333964  0.42205023    -0.06130
C1255       C  0.41767022  0.94568624  0.40075870    -0.00190
C1256       C  0.38512751  0.95875855  0.38328890    -0.08660
C1257       C  0.37990485  0.99779467  0.37127565     0.61720
H1258       H  0.33659356  0.94189386  0.35726226     0.12410
H1259       H  0.43759591  0.90520418  0.44163244     0.12420
C1260       C  0.36902553  0.87622533  0.45517764     0.61950
F1261       F  0.34449105  0.50546728  0.35854892    -0.23220
F1262       F  0.40426397  0.50633593  0.34247655    -0.20540
F1263       F  0.38570931  0.51890505  0.40162409    -0.20220
F1264       F  0.33462348  0.86385353  0.44861334    -0.20270
F1265       F  0.36511027  0.90184723  0.48251992    -0.20600
F1266       F  0.39098870  0.84839930  0.46926916    -0.23270
C1267       C  0.35552166  0.81304038  0.39434006    -0.06110
C1268       C  0.34381535  0.83932988  0.36764809    -0.00180
C1269       C  0.30740002  0.83621823  0.35345144    -0.08750
C1270       C  0.29105736  0.80273781  0.35800139    -0.06130
C1271       C  0.30078193  0.78159057  0.38976304    -0.00190
C1272       C  0.33757913  0.78149534  0.40034973    -0.08660
C1273       C  0.35749446  0.75011849  0.42006588     0.61720
H1274       H  0.37885788  0.81703718  0.41121388     0.12410
H1275       H  0.26354489  0.80028404  0.34745418     0.12420
C1276       C  0.28160388  0.86710234  0.34100981     0.61950
F1277       F  0.39343771  0.75731918  0.42753886    -0.23220
F1278       F  0.35807743  0.72051691  0.39747717    -0.20540
F1279       F  0.34087952  0.74229499  0.45405226    -0.20220
F1280       F  0.26888763  0.86194648  0.30507657    -0.20270
F1281       F  0.29718069  0.89976304  0.34162567    -0.20600
F1282       F  0.25165593  0.86858802  0.36545980    -0.23270
C1283       C  0.37884337  0.91494125  0.30209166    -0.06110
C1284       C  0.36442625  0.88130707  0.31312163    -0.00180
C1285       C  0.34898933  0.86167882  0.28242965    -0.08750
C1286       C  0.33737460  0.88173815  0.25037783    -0.06130
C1287       C  0.34265622  0.91840085  0.24777731    -0.00190
C1288       C  0.37103280  0.93224663  0.26795995    -0.08660
C1289       C  0.38370963  0.97016923  0.26130589     0.61720
H1290       H  0.39677422  0.92859096  0.32001333     0.12410
H1291       H  0.31967357  0.86999403  0.23008497     0.12420
C1292       C  0.34438589  0.82136943  0.27831926     0.61950
F1293       F  0.41984197  0.97306575  0.27125780    -0.23220
F1294       F  0.36271841  0.99314169  0.28337281    -0.20540
F1295       F  0.38056366  0.48052760  0.22338617    -0.20220
F1296       F  0.30794183  0.81404951  0.27407000    -0.20270
F1297       F  0.35776114  0.80021192  0.30761927    -0.20600
F1298       F  0.36233314  0.81069018  0.24554736    -0.23270
C1299       C  0.42681616  0.79826889  0.33001795    -0.06110
C1300       C  0.43208400  0.81614407  0.29494648    -0.00180
C1301       C  0.44070129  0.85333361  0.29493598    -0.08750
C1302       C  0.43790436  0.87024600  0.33018873    -0.06130
C1303       C  0.41379369  0.85472172  0.35663832    -0.00190
C1304       C  0.42459036  0.81841699  0.36249606    -0.08660
C1305       C  0.45245281  0.80873329  0.39264451     0.61720
H1306       H  0.42758305  0.76932073  0.33255627     0.12410
H1307       H  0.44501390  0.89781536  0.33303714     0.12420
C1308       C  0.44576591  0.87636297  0.25905308     0.61950
F1309       F  0.48498115  0.82433745  0.38297276    -0.23220
F1310       F  0.45847177  0.77197948  0.39595627    -0.20540
F1311       F  0.44133428  0.82134455  0.42740468    -0.20220
F1312       F  0.41630320  0.87339115  0.23556266    -0.20270
F1313       F  0.47630734  0.86677429  0.23916133    -0.20600
F1314       F  0.44961368  0.91185374  0.26719645    -0.23270
C1315       C  0.37146643  0.86781039  0.85516712    -0.02810
C1316       C  0.12782837  0.59813465  0.58457549    -0.02810
O1317       O  0.46810721  0.97786104  0.87396968    -0.80460
O1318       O  0.41977597  0.52172342  0.49122467    -0.80490
O1319       O  0.41045777  0.95320067  0.99811166    -0.80490
O1320       O  0.51488120  0.58439770  0.92538030    -0.80440
O1321       O  0.42870331  0.97753482  0.55054005    -0.80560
O1322       O  0.48295610  0.55226579  0.88773673    -0.80480
O1323       O  0.45175261  0.56070900  0.95800038    -0.80460
O1324       O  0.46229508  0.97634375  0.93443981    -0.80500
C1325       C  0.44958847  0.96776275  0.90236399     1.09230
C1326       C  0.42267479  0.55210851  0.47544703     1.09110
C1327       C  0.40367657  0.96270448  0.03354081     1.09250
C1328       C  0.49599994  0.58348758  0.89571846     1.09130
O1329       O  0.04186857  0.51004746  0.86420001    -0.80460
O1330       O  0.49230004  0.94358369  0.53181149    -0.80540
O1331       O  0.01669831  0.92338758  0.96156113    -0.80480
O1332       O  0.02133570  0.54300610  0.49203693    -0.80460
O1333       O  0.48276409  0.51829172  0.53419577    -0.80510
O1334       O  0.03598949  0.95280947  0.91006504    -0.80470
O1335       O  0.05526986  0.52110146  0.92361835    -0.80430
O1336       O  0.46398375  0.89923348  0.00727278    -0.80500
Co1337     Co  0.00678154  0.99988596  0.90356779     1.51530
Co1338     Co  0.45757732  0.98503584  0.50713401     1.51690
Co1339     Co  0.46469189  0.93963538  0.97409397     1.51570
Co1340     Co  0.50106641  0.53773820  0.94340224     1.51470
O1341       O  0.48149916  0.99009882  0.95606731    -1.42400
C1342       C  0.06659840  0.51575751  0.88853432     1.09150
C1343       C  0.98362012  0.90990463  0.53361546     1.09240
C1344       C  0.04144269  0.92998211  0.93692574     1.09180
C1345       C  0.01075657  0.53455722  0.52510735     1.09160
O1346       O  0.27355696  0.82579788  0.92776962    -0.80460
O1347       O  0.18965656  0.69734899  0.94093350    -0.80490
O1348       O  0.28980640  0.70973236  0.90961081    -0.80490
O1349       O  0.16650391  0.81409840  0.96480709    -0.80440
O1350       O  0.23522399  0.71705945  0.89800008    -0.80560
O1351       O  0.21218552  0.85030130  0.96947276    -0.80480
O1352       O  0.16154861  0.74788126  0.95383238    -0.80360
O1353       O  0.25957593  0.77328143  0.94477695    -0.80500
C1354       C  0.27618050  0.79345197  0.92038140     1.09230
C1355       C  0.16460750  0.72096057  0.93307287     1.09110
C1356       C  0.26472494  0.70449580  0.88622190     1.09250
C1357       C  0.17832461  0.84504892  0.96266023     1.09130
O1358       O  0.25090697  0.81396002  0.53423805    -0.80460
O1359       O  0.26568425  0.65972261  0.95303865    -0.80540
O1360       O  0.28914502  0.74640557  0.01935302    -0.80480
O1361       O  0.18988104  0.72970543  0.52888538    -0.80460
O1362       O  0.23992142  0.70391012  0.00826279    -0.80510
O1363       O  0.31001633  0.79605156  0.99687040    -0.80470
O1364       O  0.19350054  0.80481344  0.54170183    -0.80430
O1365       O  0.30937760  0.68721534  0.98025221    -0.80500
Co1366     Co  0.25924526  0.81787177  0.98031816     1.51530
Co1367     Co  0.24082810  0.71199382  0.95424067     1.51690
Co1368     Co  0.28203882  0.72984264  0.96587034     1.51570
Co1369     Co  0.18353389  0.77291460  0.99569662     1.51470
O1370       O  0.23453077  0.76706419  0.96580134    -1.42400
C1371       C  0.22227344  0.81978860  0.55228943     1.09150
C1372       C  0.29796600  0.65800841  0.96861785     1.09240
C1373       C  0.31161380  0.77103605  0.02266292     1.09180
C1374       C  0.21000880  0.70206537  0.52470444     1.09160
O1375       O  0.42510290  0.76299540  0.76004789    -0.80460
O1376       O  0.04991972  0.78077013  0.65998774    -0.80490
O1377       O  0.02837153  0.82886882  0.73753714    -0.80490
O1378       O  0.45357854  0.72796189  0.63451476    -0.80440
O1379       O  0.07997552  0.80073668  0.72624150    -0.80560
O1380       O  0.42617304  0.75992740  0.67659109    -0.80480
O1381       O  0.48990110  0.78541035  0.66233863    -0.80460
O1382       O  0.46170807  0.80115381  0.73990291    -0.80500
C1383       C  0.43608484  0.79436047  0.76126968     1.09230
C1384       C  0.01964316  0.79626818  0.64882773     1.09110
C1385       C  0.06213838  0.82980953  0.72989948     1.09250
C1386       C  0.42662115  0.74798092  0.64196126     1.09130
O1387       O  0.41393942  0.70215124  0.71955145    -0.80460
O1388       O  0.07782390  0.73259743  0.76315307    -0.80540
O1389       O  0.48587220  0.74851477  0.80431442    -0.80480
O1390       O  0.02249628  0.71918306  0.64788699    -0.80460
O1391       O  0.04992941  0.70730269  0.69987718    -0.80510
O1392       O  0.47246613  0.70293878  0.76867029    -0.80470
O1393       O  0.46576639  0.68279261  0.69451178    -0.80430
O1394       O  0.05223724  0.77682326  0.79465775    -0.80500
Co1395     Co  0.45429438  0.73247846  0.72385415     1.51530
Co1396     Co  0.06146336  0.75404557  0.71215458     1.51690
Co1397     Co  0.00546815  0.78832002  0.76732713     1.51570
Co1398     Co  0.48106647  0.73645137  0.67916755     1.51470
O1399       O  0.50716741  0.75346320  0.72612868    -1.42400
C1400       C  0.43247742  0.67603988  0.70643130     1.09150
C1401       C  0.07541323  0.75073268  0.79337133     1.09240
C1402       C  0.48025425  0.71482169  0.80094915     1.09180
C1403       C  0.04846374  0.70457977  0.66535420     1.09160
O1404       O  0.30996438  0.97194144  0.73745643    -0.80460
O1405       O  0.24201451  0.98431718  0.63063337    -0.80490
O1406       O  0.23293581  0.90655506  0.71716636    -0.80490
O1407       O  0.30851939  0.56268851  0.69109618    -0.80440
O1408       O  0.26713269  0.93653287  0.68111342    -0.80560
O1409       O  0.32255253  0.54191025  0.74874339    -0.80480
O1410       O  0.28924509  0.50157711  0.66482003    -0.80460
O1411       O  0.28307248  0.92962802  0.77016647    -0.80500
C1412       C  0.30950456  0.94018053  0.74944163     1.09230
C1413       C  0.27664687  0.49163265  0.63258774     1.09110
C1414       C  0.25032228  0.90818475  0.68623939     1.09250
C1415       C  0.33077359  0.56063525  0.71769061     1.09130
O1416       O  0.26066852  0.54518012  0.80069505    -0.80460
O1417       O  0.18618774  0.94843593  0.69043695    -0.80540
O1418       O  0.22231825  0.96315595  0.81209654    -0.80480
O1419       O  0.23750969  0.55963513  0.68251432    -0.80460
O1420       O  0.19785299  0.51857387  0.68776171    -0.80510
O1421       O  0.23994045  0.01856162  0.80716904    -0.80470
O1422       O  0.26171940  0.57577100  0.74853433    -0.80430
O1423       O  0.17982746  0.95416352  0.75192844    -0.80500
Co1424     Co  0.28262757  0.00388034  0.77013719     1.51530
Co1425     Co  0.23306791  0.97948153  0.68511311     1.51690
Co1426     Co  0.23117822  0.94266648  0.76117242     1.51570
Co1427     Co  0.27335028  0.53248945  0.71084892     1.51470
O1428       O  0.24099365  0.99341660  0.73671487    -1.42400
C1429       C  0.26061790  0.57641971  0.78477276     1.09150
C1430       C  0.16773141  0.94292299  0.72165780     1.09240
C1431       C  0.21573657  0.99586352  0.81840877     1.09180
C1432       C  0.20516722  0.55096276  0.68721259     1.09160
C1433       C  0.37350474  0.60078659  0.74557621    -0.06110
C1434       C  0.36366392  0.58331055  0.71370120    -0.00180
C1435       C  0.38220237  0.59172393  0.67861531    -0.08750
C1436       C  0.40722977  0.62032330  0.67678209    -0.06130
C1437       C  0.41506037  0.63972221  0.70908897    -0.00190
C1438       C  0.39889069  0.62801045  0.74389788    -0.08660
C1439       C  0.41047918  0.64246728  0.78022916     0.61720
H1440       H  0.35962145  0.59392683  0.77197873     0.12410
H1441       H  0.41915516  0.62876402  0.64987970     0.12420
C1442       C  0.37590468  0.57062835  0.64332800     0.61950
F1443       F  0.39538143  0.62401230  0.81045330    -0.23220
F1444       F  0.39924932  0.67798961  0.78298094    -0.20540
F1445       F  0.44809938  0.63787769  0.78135782    -0.20220
F1446       F  0.34223009  0.58026032  0.62817778    -0.20270
F1447       F  0.37714806  0.53431303  0.65228178    -0.20600
F1448       F  0.40250584  0.57690261  0.61585222    -0.23270
C1449       C  0.11441523  0.86124301  0.75234031    -0.06110
C1450       C  0.08341415  0.86344957  0.72965863    -0.00180
C1451       C  0.07747788  0.89517116  0.70678051    -0.08750
C1452       C  0.10559886  0.92047140  0.70396835    -0.06130
C1453       C  0.13726625  0.91712541  0.72612261    -0.00190
C1454       C  0.13904518  0.88890687  0.75436478    -0.08660
C1455       C  0.16651792  0.88653393  0.78679774     0.61720
H1456       H  0.11974688  0.83681558  0.76853997     0.12410
H1457       H  0.10210679  0.94345978  0.68504321     0.12420
C1458       C  0.04273281  0.90423071  0.68521961     0.61950
F1459       F  0.16268512  0.85603107  0.80946715    -0.23220
F1460       F  0.16141437  0.91588307  0.80956379    -0.20540
F1461       F  0.20191645  0.88511622  0.77369628    -0.20220
F1462       F  0.02304192  0.93088479  0.70387405    -0.20270
F1463       F  0.02088405  0.87530060  0.68191522    -0.20600
F1464       F  0.05126795  0.91691115  0.64911452    -0.23270
C1465       C  0.21323947  0.83313684  0.62230710    -0.06110
C1466       C  0.22549791  0.84411812  0.58600858    -0.00180
C1467       C  0.24857706  0.87453223  0.58393993    -0.08750
C1468       C  0.25542258  0.89372629  0.61701838    -0.06130
C1469       C  0.24354531  0.88296693  0.65341253    -0.00190
C1470       C  0.22379479  0.85047761  0.65593433    -0.08660
C1471       C  0.21569952  0.83239010  0.69369604     0.61720
H1472       H  0.19771960  0.80900654  0.62446508     0.12410
H1473       H  0.27197549  0.91690704  0.61472459     0.12420
C1474       C  0.26971759  0.88525425  0.54800214     0.61950
F1475       F  0.20669959  0.79699514  0.68982087    -0.23220
F1476       F  0.18656732  0.85009700  0.71050559    -0.20540
F1477       F  0.24591264  0.83279881  0.71674702    -0.20220
F1478       F  0.24741013  0.88675120  0.51700945    -0.20270
F1479       F  0.29859025  0.86106521  0.54191380    -0.20600
F1480       F  0.28431655  0.91853838  0.55050015    -0.23270
C1481       C  0.27862856  0.64232755  0.79685797    -0.06110
C1482       C  0.25980495  0.61108857  0.80891181    -0.00180
C1483       C  0.24342017  0.61275571  0.84603667    -0.08750
C1484       C  0.24634012  0.64362966  0.86836285    -0.06130
C1485       C  0.26554636  0.67401553  0.85727256    -0.00190
C1486       C  0.28176956  0.67342195  0.82023574    -0.08660
C1487       C  0.30158157  0.70580454  0.80533306     0.61720
H1488       H  0.29168383  0.64202365  0.76913648     0.12410
H1489       H  0.23315264  0.64407355  0.89587839     0.12420
C1490       C  0.22052018  0.58296893  0.86218517     0.61950
F1491       F  0.31477724  0.70117957  0.76876433    -0.23220
F1492       F  0.33080975  0.71194080  0.82827386    -0.20540
F1493       F  0.27785645  0.73549099  0.80527752    -0.20220
F1494       F  0.24213271  0.55257634  0.86933083    -0.20270
F1495       F  0.19375301  0.57696138  0.83643787    -0.20600
F1496       F  0.20332465  0.59124105  0.89614671    -0.23270
C1497       C  0.12061193  0.75601596  0.89192128    -0.06110
C1498       C  0.14035096  0.72303598  0.89720146    -0.00180
C1499       C  0.13766686  0.69855481  0.86669914    -0.08750
C1500       C  0.11850596  0.70921993  0.83277803    -0.06130
C1501       C  0.09925008  0.74246349  0.82825760    -0.00190
C1502       C  0.10095404  0.76635372  0.85910205    -0.08660
C1503       C  0.08275616  0.80360268  0.85833753     0.61720
H1504       H  0.12051265  0.77494563  0.91440496     0.12410
H1505       H  0.11685865  0.69020161  0.81026736     0.12420
C1506       C  0.15093289  0.66002236  0.86826947     0.61950
F1507       F  0.09148364  0.82321116  0.88924948    -0.23220
F1508       F  0.04532935  0.80175602  0.85861942    -0.20540
F1509       F  0.09390561  0.82205172  0.82635636    -0.20220
F1510       F  0.16521359  0.64975777  0.90278191    -0.20270
F1511       F  0.17674564  0.65501499  0.83981912    -0.20600
F1512       F  0.12202670  0.63821344  0.86174142    -0.23270
C1513       C  0.36154573  0.76370121  0.62105713    -0.06110
C1514       C  0.39815929  0.75629604  0.61078072    -0.00180
C1515       C  0.40586629  0.75359787  0.57067381    -0.08750
C1516       C  0.37756878  0.76114316  0.54366116    -0.06130
C1517       C  0.34074360  0.76809758  0.55404920    -0.00190
C1518       C  0.33283498  0.76770266  0.59406831    -0.08660
C1519       C  0.29505736  0.77624948  0.60949845     0.61720
H1520       H  0.35524639  0.76549033  0.65103065     0.12410
H1521       H  0.38373601  0.75977365  0.51365380     0.12420
C1522       C  0.44343103  0.74153084  0.55547957     0.61950
F1523       F  0.29130756  0.76582556  0.64726921    -0.23220
F1524       F  0.26856307  0.75948935  0.58976229    -0.20540
F1525       F  0.29000333  0.81275134  0.60683211    -0.20220
F1526       F  0.45069625  0.70614115  0.56615328    -0.20270
F1527       F  0.47024791  0.76250781  0.56921268    -0.20600
F1528       F  0.44554312  0.74386569  0.51629972    -0.23270
C1529       C  0.35928053  0.63572310  0.98954135    -0.06110
C1530       C  0.32583316  0.62654676  0.97330814    -0.00180
C1531       C  0.32355564  0.59045731  0.96201178    -0.08750
C1532       C  0.35478606  0.56650659  0.96589413    -0.06130
C1533       C  0.38996199  0.57813507  0.47684735    -0.00190
C1534       C  0.39198720  0.61428651  0.48801194    -0.08660
C1535       C  0.42626792  0.63319433  0.49882158     0.61720
H1536       H  0.36355087  0.66301127  0.49834796     0.12410
H1537       H  0.35284017  0.53887111  0.95810346     0.12420
C1538       C  0.29023894  0.57795373  0.94264524     0.61950
F1539       F  0.42969431  0.66393453  0.47636633    -0.23220
F1540       F  0.45796084  0.61305530  0.49422345    -0.20540
F1541       F  0.42289858  0.64304606  0.53620796    -0.20220
F1542       F  0.28887887  0.59496217  0.90780538    -0.20270
F1543       F  0.25881724  0.58622058  0.96336693    -0.20600
F1544       F  0.29191446  0.54138269  0.93708983    -0.23270
C1545       C  0.09385186  0.90761945  0.97746536    -0.06110
C1546       C  0.07888196  0.91109787  0.94107269    -0.00180
C1547       C  0.10058703  0.89794185  0.91038375    -0.08750
C1548       C  0.13467241  0.87888295  0.91764740    -0.06130
C1549       C  0.14919745  0.87444606  0.95447942    -0.00190
C1550       C  0.12863315  0.89071164  0.98446181    -0.08660
C1551       C  0.14289784  0.88962190  0.52451067     0.61720
H1552       H  0.07793415  0.91862218  0.00081216     0.12410
H1553       H  0.14978405  0.86644858  0.89457247     0.12420
C1554       C  0.08687240  0.90288994  0.87029525     0.61950
F1555       F  0.12333381  0.91327708  0.54730570    -0.23220
F1556       F  0.17881346  0.89954166  0.52419246    -0.20540
F1557       F  0.14045938  0.85540863  0.53978708    -0.20220
F1558       F  0.08670228  0.93866322  0.85946042    -0.20270
F1559       F  0.05190302  0.89026701  0.86777777    -0.20600
F1560       F  0.10887868  0.88464407  0.84511012    -0.23270
C1561       C  0.17347159  0.99609638  0.87585533    -0.06110
C1562       C  0.17928504  0.00636627  0.83787034    -0.00180
C1563       C  0.14805818  0.52150942  0.81839673    -0.08750
C1564       C  0.11348491  0.52490037  0.83706928    -0.06130
C1565       C  0.10712082  0.51423362  0.87508848    -0.00190
C1566       C  0.13880884  0.99994172  0.89494198    -0.08660
C1567       C  0.13972784  0.98711113  0.93564780     0.61720
H1568       H  0.19663132  0.98411812  0.89099681     0.12410
H1569       H  0.09052313  0.53591255  0.82091691     0.12420
C1570       C  0.14858442  0.53390199  0.77752046     0.61950
F1571       F  0.15231692  0.95193592  0.93722392    -0.23220
F1572       F  0.10643494  0.98946146  0.95411858    -0.20540
F1573       F  0.16461361  0.00696724  0.95423878    -0.20220
F1574       F  0.12656323  0.51206516  0.75748725    -0.20270
F1575       F  0.18314223  0.53291028  0.76187867    -0.20600
F1576       F  0.13489379  0.56889185  0.77450919    -0.23270
C1577       C  0.33566548  0.97942913  0.54081333    -0.06110
C1578       C  0.36751624  0.96173621  0.55562902    -0.00180
C1579       C  0.36682672  0.95221683  0.59536255    -0.08750
C1580       C  0.33541329  0.96041953  0.61750400    -0.06130
C1581       C  0.30464695  0.97955984  0.60352159    -0.00190
C1582       C  0.30444741  0.98880633  0.56423010    -0.08660
C1583       C  0.27217187  0.50928418  0.54714685     0.61720
H1584       H  0.33624050  0.98793831  0.51126812     0.12410
H1585       H  0.33564942  0.95284717  0.64740054     0.12420
C1586       C  0.39822414  0.93468769  0.61807309     0.61950
F1587       F  0.27721910  0.51683879  0.50895578    -0.23220
F1588       F  0.26648361  0.54124509  0.56554231    -0.20540
F1589       F  0.24136991  0.48908845  0.55158717    -0.20220
F1590       F  0.43013022  0.92833404  0.59793814    -0.20270
F1591       F  0.38715613  0.90222166  0.63324908    -0.20600
F1592       F  0.40642151  0.95655759  0.64755824    -0.23270
C1593       C  0.03050536  0.87864106  0.57808243    -0.06110
C1594       C  0.99434007  0.88253171  0.56422593    -0.00180
C1595       C  0.46860873  0.85687150  0.57703195    -0.08750
C1596       C  0.47915770  0.83104668  0.60453971    -0.06130
C1597       C  0.01505841  0.82596918  0.61831877    -0.00190
C1598       C  0.04169369  0.84984194  0.60372268    -0.08660
C1599       C  0.08175125  0.84424684  0.61331679     0.61720
H1600       H  0.05049137  0.89700704  0.56698748     0.12410
H1601       H  0.45856702  0.81284604  0.61415598     0.12420
C1602       C  0.43116713  0.85225318  0.55906480     0.61950
F1603       F  0.10157884  0.87372014  0.60293315    -0.23220
F1604       F  0.09609417  0.81485626  0.59454646    -0.20540
F1605       F  0.08627264  0.83857174  0.65158057    -0.20220
F1606       F  0.43652375  0.83400393  0.52580659    -0.20270
F1607       F  0.41257660  0.88425985  0.55133499    -0.20600
F1608       F  0.40809851  0.83271509  0.58239330    -0.23270
C1609       C  0.45104430  0.66950240  0.84747708    -0.06110
C1610       C  0.48196443  0.68792831  0.83482524    -0.00180
C1611       C  0.51482993  0.67696283  0.85292167    -0.08750
C1612       C  0.51939349  0.64071911  0.86608356    -0.06130
C1613       C  0.48931960  0.61859791  0.87284794    -0.00190
C1614       C  0.45414126  0.63526454  0.86650346    -0.08660
C1615       C  0.42066353  0.61902322  0.88384950     0.61720
H1616       H  0.42449138  0.68206271  0.84247294     0.12410
H1617       H  0.04565787  0.63176242  0.87736094     0.12420
C1618       C  0.02945820  0.70343831  0.87966368     0.61950
F1619       F  0.38918727  0.64025410  0.87866844    -0.23220
F1620       F  0.42639374  0.61612408  0.92169500    -0.20540
F1621       F  0.41564627  0.58542492  0.86969587    -0.20220
F1622       F  0.00735652  0.70450968  0.91183466    -0.20270
F1623       F  0.02908499  0.73715932  0.86336979    -0.20600
F1624       F  0.06443354  0.69352219  0.89061675    -0.23270
C1625       C  0.14339795  0.56164212  0.67789106    -0.06110
C1626       C  0.17531456  0.57763345  0.68758782    -0.00180
C1627       C  0.18449684  0.60726866  0.66628458    -0.08750
C1628       C  0.17884473  0.60507822  0.62781490    -0.06130
C1629       C  0.15404882  0.57948665  0.61329790    -0.00190
C1630       C  0.14162386  0.55271518  0.63965171    -0.08660
C1631       C  0.13951891  0.51261601  0.63161799     0.61720
H1632       H  0.13207796  0.54378417  0.69903176     0.12410
H1633       H  0.18591921  0.62887395  0.61191893     0.12420
C1634       C  0.20356598  0.63810930  0.68296721     0.61950
F1635       F  0.13859844  0.98978748  0.65946999    -0.23220
F1636       F  0.17176438  0.50013506  0.61510512    -0.20540
F1637       F  0.11084680  0.50398852  0.60976180    -0.20220
F1638       F  0.23823002  0.64065530  0.66713453    -0.20270
F1639       F  0.20656301  0.63349680  0.72185835    -0.20600
F1640       F  0.18362102  0.66958741  0.67539961    -0.23270
C1641       C  0.11928549  0.66292259  0.60420516    -0.06110
C1642       C  0.11043504  0.62686452  0.61105991    -0.00180
C1643       C  0.08543129  0.61840935  0.64293397    -0.08750
C1644       C  0.07174351  0.64658022  0.66310275    -0.06130
C1645       C  0.07353962  0.68074227  0.64836981    -0.00190
C1646       C  0.09898541  0.69045317  0.62059523    -0.08660
C1647       C  0.10526340  0.72921538  0.60966736     0.61720
H1648       H  0.14156172  0.66984763  0.58580882     0.12410
H1649       H  0.05394979  0.64160788  0.68763121     0.12420
C1650       C  0.06552382  0.58410651  0.65640945     0.61950
F1651       F  0.13296815  0.73255571  0.58283181    -0.23220
F1652       F  0.11495154  0.74739560  0.64138695    -0.20540
F1653       F  0.07359071  0.74468253  0.59466451    -0.20220
F1654       F  0.07356786  0.57595765  0.69385971    -0.20270
F1655       F  0.07141163  0.55399242  0.63574494    -0.20600
F1656       F  0.02821864  0.59081888  0.65614243    -0.23270
C1657       C  0.15708890  0.66748547  0.51524128    -0.06110
C1658       C  0.19290539  0.66801489  0.52882919    -0.00180
C1659       C  0.21039154  0.63588682  0.54206303    -0.08750
C1660       C  0.18830974  0.60620339  0.54679619    -0.06130
C1661       C  0.14968066  0.61200737  0.54877420    -0.00190
C1662       C  0.13533478  0.63847180  0.52273758    -0.08660
C1663       C  0.09847486  0.63922321  0.50342437     0.61720
H1664       H  0.14464868  0.69171675  0.00173906     0.12410
H1665       H  0.20110945  0.58221818  0.55909544     0.12420
C1666       C  0.24954994  0.63234334  0.55647625     0.61950
F1667       F  0.10439640  0.65351679  0.96550023    -0.23220
F1668       F  0.07314123  0.65950744  0.52380719    -0.20540
F1669       F  0.08715012  0.60504146  0.99699627    -0.20220
F1670       F  0.26572910  0.66476929  0.56068484    -0.20270
F1671       F  0.27055433  0.61196571  0.53190214    -0.20600
F1672       F  0.25022572  0.61504291  0.59156596    -0.23270
C1673       C  0.06821126  0.52586959  0.54932183    -0.06110
C1674       C  0.03385714  0.54319896  0.55380519    -0.00180
C1675       C  0.02942366  0.57792005  0.56639496    -0.08750
C1676       C  0.06066341  0.59560576  0.57112513    -0.06130
C1677       C  0.09615454  0.57839774  0.56955999    -0.00190
C1678       C  0.09985978  0.54497997  0.55230340    -0.08660
C1679       C  0.13452764  0.53140358  0.53238380     0.61720
H1680       H  0.06965295  0.49980420  0.53635553     0.12410
H1681       H  0.05639359  0.62368315  0.57691442     0.12420
C1682       C  0.49333736  0.59956918  0.56976832     0.61950
F1683       F  0.12970098  0.99525112  0.52218924    -0.23220
F1684       F  0.16481348  0.53263241  0.55446955    -0.20540
F1685       F  0.13992846  0.55257700  0.50028118    -0.20220
F1686       F  0.48759044  0.61091484  0.60620344    -0.20270
F1687       F  0.46331368  0.58043189  0.56048030    -0.20600
F1688       F  0.49531419  0.62997722  0.54675576    -0.23270
C1689       C  0.35807748  0.93369194  0.87647415    -0.06110
C1690       C  0.36582000  0.89720210  0.88585311    -0.00180
C1691       C  0.38584371  0.89243340  0.91941383    -0.08750
C1692       C  0.41661957  0.91317781  0.92185844    -0.06130
C1693       C  0.41772499  0.94553621  0.90058483    -0.00190
C1694       C  0.38514177  0.95860804  0.88320359    -0.08660
C1695       C  0.37991707  0.99763544  0.87117197     0.61720
H1696       H  0.33655636  0.94175550  0.85729488     0.12410
H1697       H  0.43778677  0.90503074  0.94135919     0.12420
C1698       C  0.36923065  0.87607720  0.95513239     0.61950
F1699       F  0.34477881  0.50536673  0.85840066    -0.23220
F1700       F  0.40455333  0.50616511  0.84228942    -0.20540
F1701       F  0.38604267  0.51880875  0.90142219    -0.20220
F1702       F  0.33480280  0.86371857  0.94867761    -0.20270
F1703       F  0.36540219  0.90169357  0.98248424    -0.20600
F1704       F  0.39122217  0.84824616  0.96915944    -0.23270
C1705       C  0.35546736  0.81297720  0.89432524    -0.06110
C1706       C  0.34374502  0.83924391  0.86760753    -0.00180
C1707       C  0.30732170  0.83614964  0.85344026    -0.08750
C1708       C  0.29096009  0.80268572  0.85803418    -0.06130
C1709       C  0.30070712  0.78157731  0.88981357    -0.00190
C1710       C  0.33751092  0.78144400  0.90035871    -0.08660
C1711       C  0.35740454  0.75010323  0.92017269     0.61720
H1712       H  0.37872755  0.81696614  0.91111986     0.12410
H1713       H  0.26344530  0.80023872  0.84752809     0.12420
C1714       C  0.28152826  0.86704303  0.84103175     0.61950
F1715       F  0.39334130  0.75730835  0.92766018    -0.23220
F1716       F  0.35799840  0.72044090  0.89767492    -0.20540
F1717       F  0.34076684  0.74236502  0.95416307    -0.20220
F1718       F  0.26879278  0.86191226  0.80510385    -0.20270
F1719       F  0.29712304  0.89969076  0.84166171    -0.20600
F1720       F  0.25159274  0.86853017  0.86549874    -0.23270
C1721       C  0.37882441  0.91483318  0.80207094    -0.06110
C1722       C  0.36435549  0.88121282  0.81308084    -0.00180
C1723       C  0.34889757  0.86161124  0.78237655    -0.08750
C1724       C  0.33736255  0.88169020  0.75030718    -0.06130
C1725       C  0.34269162  0.91834592  0.74773209    -0.00190
C1726       C  0.37107050  0.93215035  0.76793219    -0.08660
C1727       C  0.38377123  0.97006791  0.76128936     0.61720
H1728       H  0.39677924  0.92844352  0.81999682     0.12410
H1729       H  0.31967286  0.86997810  0.72998232     0.12420
C1730       C  0.34420578  0.82131219  0.77825250     0.61950
F1731       F  0.41989214  0.97295044  0.77129116    -0.23220
F1732       F  0.36275494  0.99306207  0.78331017    -0.20540
F1733       F  0.38048737  0.48038509  0.72326818    -0.20220
F1734       F  0.30774649  0.81407321  0.77397324    -0.20270
F1735       F  0.35751051  0.80011260  0.80755219    -0.20600
F1736       F  0.36214978  0.81059907  0.74549120    -0.23270
C1737       C  0.42656326  0.79807757  0.82979763    -0.06110
C1738       C  0.43186923  0.81598588  0.79475395    -0.00180
C1739       C  0.44056137  0.85315519  0.79477964    -0.08750
C1740       C  0.43784058  0.87002220  0.83006248    -0.06130
C1741       C  0.41372230  0.85451128  0.85651750    -0.00190
C1742       C  0.42442663  0.81817381  0.86230526    -0.08660
C1743       C  0.45228998  0.80835302  0.89240775     0.61720
H1744       H  0.42725232  0.76912632  0.83229286     0.12410
H1745       H  0.44499296  0.89757625  0.83293400     0.12420
C1746       C  0.44557575  0.87623158  0.75890910     0.61950
F1747       F  0.48482136  0.82393324  0.88274993    -0.23220
F1748       F  0.45824954  0.77158266  0.89560164    -0.20540
F1749       F  0.44124774  0.82088676  0.92722012    -0.20220
F1750       F  0.41602592  0.87337786  0.73551919    -0.20270
F1751       F  0.47599325  0.86660745  0.73884405    -0.20600
F1752       F  0.44956540  0.91169059  0.76710585    -0.23270
C1753       C  0.87146574  0.36788794  0.35495539    -0.02810
C1754       C  0.62822526  0.09787319  0.08377781    -0.02810
O1755       O  0.96777761  0.47802285  0.37369240    -0.80460
O1756       O  0.91967697  0.02210706  0.99159863    -0.80490
O1757       O  0.91056233  0.45283279  0.49784912    -0.80490
O1758       O  0.01487333  0.08444983  0.42538588    -0.80440
O1759       O  0.92900448  0.47708865  0.05027604    -0.80560
O1760       O  0.98297853  0.05227066  0.38782801    -0.80480
O1761       O  0.95171520  0.06058131  0.45794498    -0.80460
O1762       O  0.96232180  0.47618426  0.43419884    -0.80500
C1763       C  0.94939609  0.46780162  0.40214051     1.09230
C1764       C  0.92227540  0.05228843  0.97527948     1.09110
C1765       C  0.90378818  0.46239635  0.53326290     1.09250
C1766       C  0.99604567  0.08351018  0.39569897     1.09130
O1767       O  0.54197933  0.01000658  0.36456316    -0.80460
O1768       O  0.99246492  0.44309640  0.03124832    -0.80540
O1769       O  0.51693496  0.42342337  0.46133880    -0.80480
O1770       O  0.52059748  0.04397168  0.99217987    -0.80460
O1771       O  0.98261510  0.01874199  0.03460230    -0.80510
O1772       O  0.53565363  0.45243574  0.40936586    -0.80470
O1773       O  0.55539402  0.02118547  0.42395792    -0.80430
O1774       O  0.96418178  0.39886595  0.50685415    -0.80500
Co1775     Co  0.50670958  0.49971696  0.40325492     1.51530
Co1776     Co  0.95775148  0.48468498  0.00680355     1.51690
Co1777     Co  0.96484187  0.43938290  0.47379936     1.51570
Co1778     Co  0.00109415  0.03780244  0.44357760     1.51470
O1779       O  0.98154400  0.48983246  0.45575685    -1.42400
C1780       C  0.56672247  0.01577674  0.38886473     1.09150
C1781       C  0.48373757  0.40943667  0.03303189     1.09240
C1782       C  0.54148734  0.42996053  0.43648003     1.09180
C1783       C  0.51021957  0.03554335  0.02533474     1.09160
O1784       O  0.77370273  0.32600540  0.42759309    -0.80460
O1785       O  0.68957202  0.19748382  0.44089498    -0.80490
O1786       O  0.78973860  0.20991182  0.40953761    -0.80490
O1787       O  0.66674285  0.31437829  0.46391337    -0.80440
O1788       O  0.73516841  0.21727191  0.39785037    -0.80560
O1789       O  0.71230937  0.35056628  0.46937652    -0.80480
O1790       O  0.66155579  0.24810314  0.45354895    -0.80360
O1791       O  0.75956804  0.27351863  0.44458893    -0.80500
C1792       C  0.77625047  0.29364751  0.42020891     1.09230
C1793       C  0.66454403  0.22108011  0.43294106     1.09110
C1794       C  0.76467660  0.20468288  0.38611538     1.09250
C1795       C  0.67851424  0.34535644  0.46218724     1.09130
O1796       O  0.75088384  0.31378571  0.03410086    -0.80460
O1797       O  0.76564148  0.15996231  0.45284320    -0.80540
O1798       O  0.78903156  0.24667309  0.51925429    -0.80480
O1799       O  0.68982433  0.23069115  0.02887507    -0.80460
O1800       O  0.73979658  0.20420544  0.50816428    -0.80510
O1801       O  0.81012085  0.29615684  0.49665780    -0.80470
O1802       O  0.69324489  0.30580265  0.04080516    -0.80430
O1803       O  0.80913842  0.18744054  0.48035059    -0.80500
Co1804     Co  0.75935508  0.31804215  0.48014966     1.51530
Co1805     Co  0.74073230  0.21222655  0.45409800     1.51690
Co1806     Co  0.78193205  0.23006245  0.46579488     1.51570
Co1807     Co  0.68351455  0.27338930  0.49522680     1.51470
O1808       O  0.73453332  0.26733034  0.46554590    -1.42400
C1809       C  0.72216457  0.32023217  0.05175632     1.09150
C1810       C  0.79793065  0.15828918  0.46839088     1.09240
C1811       C  0.81165396  0.27117582  0.52248548     1.09180
C1812       C  0.70987120  0.20292970  0.02507031     1.09160
O1813       O  0.92518859  0.26323218  0.25994283    -0.80460
O1814       O  0.55007567  0.28032506  0.15956251    -0.80490
O1815       O  0.52852465  0.32871574  0.23711047    -0.80490
O1816       O  0.95349150  0.22799099  0.13447473    -0.80440
O1817       O  0.58007528  0.30050429  0.22584851    -0.80560
O1818       O  0.92626944  0.26020703  0.17643184    -0.80480
O1819       O  0.99008620  0.28533779  0.16221772    -0.80460
O1820       O  0.96185607  0.30129792  0.23976494    -0.80500
C1821       C  0.93625246  0.29456009  0.26117867     1.09230
C1822       C  0.51983449  0.29595508  0.14847572     1.09110
C1823       C  0.56227945  0.32961011  0.22944148     1.09250
C1824       C  0.92662440  0.24813687  0.14185786     1.09130
O1825       O  0.91369258  0.20266067  0.21924012    -0.80460
O1826       O  0.57796419  0.23241528  0.26289702    -0.80540
O1827       O  0.98601889  0.24855881  0.30413853    -0.80480
O1828       O  0.52231352  0.21889182  0.14784200    -0.80460
O1829       O  0.55052291  0.20676437  0.19945945    -0.80510
O1830       O  0.97220544  0.20301269  0.26861080    -0.80470
O1831       O  0.96542782  0.18285392  0.19445591    -0.80430
O1832       O  0.55242016  0.27673771  0.29431013    -0.80500
Co1833     Co  0.95425280  0.23264980  0.22370425     1.51530
Co1834     Co  0.56161752  0.25372619  0.21181526     1.51690
Co1835     Co  0.50564452  0.28827582  0.26704697     1.51570
Co1836     Co  0.98103159  0.23641410  0.17910386     1.51470
O1837       O  0.00728627  0.25328598  0.22598064    -1.42400
C1838       C  0.93203588  0.17638494  0.20624333     1.09150
C1839       C  0.57554679  0.25060890  0.29308315     1.09240
C1840       C  0.98018805  0.21489223  0.30085646     1.09180
C1841       C  0.54829525  0.20392326  0.16498760     1.09160
O1842       O  0.80995521  0.47198959  0.23716097    -0.80460
O1843       O  0.74225419  0.48514730  0.13012007    -0.80490
O1844       O  0.73265779  0.40689688  0.21643951    -0.80490
O1845       O  0.80790954  0.06285661  0.19091435    -0.80440
O1846       O  0.76683979  0.43694359  0.18046112    -0.80560
O1847       O  0.82226445  0.04205424  0.24849407    -0.80480
O1848       O  0.78897874  0.00152478  0.16498817    -0.80460
O1849       O  0.78288156  0.42958539  0.26955753    -0.80500
C1850       C  0.80943733  0.44019669  0.24904348     1.09230
C1851       C  0.77641044  0.99136260  0.13283713     1.09110
C1852       C  0.75003976  0.40860091  0.18553998     1.09250
C1853       C  0.83026880  0.06084672  0.21742599     1.09130
O1854       O  0.76074958  0.04527514  0.30079391    -0.80460
O1855       O  0.68591940  0.44913364  0.18964037    -0.80540
O1856       O  0.72218454  0.46313298  0.31156912    -0.80480
O1857       O  0.73674971  0.05929185  0.18276918    -0.80460
O1858       O  0.69752262  0.01783104  0.18804913    -0.80510
O1859       O  0.73990460  0.51854306  0.30693400    -0.80470
O1860       O  0.76133917  0.07580868  0.24857676    -0.80430
O1861       O  0.67968954  0.45440365  0.25121736    -0.80500
Co1862     Co  0.78258516  0.50390620  0.26985921     1.51530
Co1863     Co  0.73298910  0.48006047  0.18457051     1.51690
Co1864     Co  0.73101919  0.44282559  0.26053379     1.51570
Co1865     Co  0.77299441  0.03249159  0.21094258     1.51470
O1866       O  0.74100249  0.49363683  0.23626703    -1.42400
C1867       C  0.76050378  0.07650326  0.28481769     1.09150
C1868       C  0.66758911  0.44324674  0.22089552     1.09240
C1869       C  0.71569723  0.49581139  0.31811553     1.09180
C1870       C  0.70446933  0.05028295  0.18727356     1.09160
C1871       C  0.87192130  0.10195567  0.24517859    -0.06110
C1872       C  0.86293687  0.08377992  0.21348478    -0.00180
C1873       C  0.88200358  0.09176296  0.17860580    -0.08750
C1874       C  0.90705910  0.12035760  0.17680785    -0.06130
C1875       C  0.91425027  0.14025683  0.20895811    -0.00190
C1876       C  0.89726264  0.12919273  0.24357731    -0.08660
C1877       C  0.90848615  0.14381738  0.27996699     0.61720
H1878       H  0.85752455  0.09547386  0.27139231     0.12410
H1879       H  0.91954670  0.12836890  0.15003714     0.12420
C1880       C  0.87619640  0.07021641  0.14353340     0.61950
F1881       F  0.89252437  0.12595202  0.31006459    -0.23220
F1882       F  0.89796704  0.17954726  0.28240506    -0.20540
F1883       F  0.94599251  0.13846587  0.28164756    -0.20220
F1884       F  0.84253000  0.07932197  0.12807214    -0.20270
F1885       F  0.87776969  0.03399540  0.15292889    -0.20600
F1886       F  0.90288544  0.07648911  0.11615141    -0.23270
C1887       C  0.61459197  0.36122447  0.25166919    -0.06110
C1888       C  0.58355972  0.36326911  0.22903184    -0.00180
C1889       C  0.57754115  0.39489641  0.20604780    -0.08750
C1890       C  0.60562148  0.42022977  0.20306111    -0.06130
C1891       C  0.63726195  0.41718905  0.22530967    -0.00190
C1892       C  0.63910993  0.38901838  0.25363821    -0.08660
C1893       C  0.66651938  0.38681298  0.28613465     0.61720
H1894       H  0.61999222  0.33685105  0.26793739     0.12410
H1895       H  0.60204959  0.44298928  0.18389680     0.12420
C1896       C  0.54270549  0.40386208  0.18458978     0.61950
F1897       F  0.66276694  0.35633148  0.30885457    -0.23220
F1898       F  0.66124163  0.41618671  0.30883490    -0.20540
F1899       F  0.70194918  0.38549088  0.27312611    -0.20220
F1900       F  0.52304066  0.43052352  0.20326057    -0.20270
F1901       F  0.52087524  0.37489784  0.18142185    -0.20600
F1902       F  0.55109340  0.41649935  0.14843297    -0.23270
C1903       C  0.71311508  0.33358948  0.12165259    -0.06110
C1904       C  0.72535061  0.34461755  0.08536786    -0.00180
C1905       C  0.74848222  0.37497266  0.08328808    -0.08750
C1906       C  0.75521675  0.39422205  0.11634310    -0.06130
C1907       C  0.74335541  0.38341070  0.15272574    -0.00190
C1908       C  0.72371283  0.35087381  0.15527035    -0.08660
C1909       C  0.71586393  0.33263920  0.19301913     0.61720
H1910       H  0.69762957  0.30943527  0.12380556     0.12410
H1911       H  0.77168092  0.41746302  0.11405265     0.12420
C1912       C  0.76972758  0.38557920  0.04737780     0.61950
F1913       F  0.70711336  0.29718457  0.18907230    -0.23220
F1914       F  0.68666635  0.35009656  0.20998824    -0.20540
F1915       F  0.74613728  0.33319719  0.21597249    -0.20220
F1916       F  0.74739151  0.38745602  0.01641845    -0.20270
F1917       F  0.79831668  0.36111379  0.04114364    -0.20600
F1918       F  0.78475761  0.41865383  0.05000388    -0.23270
C1919       C  0.77846551  0.14245354  0.29678073    -0.06110
C1920       C  0.75971515  0.11119513  0.30891622    -0.00180
C1921       C  0.74343062  0.11286581  0.34608443    -0.08750
C1922       C  0.74635582  0.14376647  0.36836311    -0.06130
C1923       C  0.76550379  0.17416644  0.35720512    -0.00190
C1924       C  0.78162789  0.17357020  0.32012396    -0.08660
C1925       C  0.80133980  0.20597946  0.30513612     0.61720
H1926       H  0.79143711  0.14215337  0.26901886     0.12410
H1927       H  0.73316472  0.14424366  0.39587197     0.12420
C1928       C  0.72055105  0.08308854  0.36229589     0.61950
F1929       F  0.81447074  0.20133889  0.26854648    -0.23220
F1930       F  0.83059607  0.21220742  0.32800602    -0.20540
F1931       F  0.77755028  0.23561673  0.30509348    -0.20220
F1932       F  0.74215048  0.05267767  0.36938982    -0.20270
F1933       F  0.69372338  0.07710887  0.33661714    -0.20600
F1934       F  0.70343812  0.09136348  0.39630002    -0.23270
C1935       C  0.62055940  0.25603403  0.39169794    -0.06110
C1936       C  0.64028102  0.22305563  0.39707537    -0.00180
C1937       C  0.63760233  0.19850249  0.36663867    -0.08750
C1938       C  0.61846729  0.20909731  0.33268193    -0.06130
C1939       C  0.59930729  0.24237583  0.32802616    -0.00190
C1940       C  0.60101946  0.26635148  0.35879861    -0.08660
C1941       C  0.58300856  0.30369176  0.35786028     0.61720
H1942       H  0.62039556  0.27499002  0.41415963     0.12410
H1943       H  0.61680454  0.19002047  0.31022934     0.12420
C1944       C  0.65087695  0.15997557  0.36829873     0.61950
F1945       F  0.59184279  0.32336961  0.38868992    -0.23220
F1946       F  0.54555444  0.30205828  0.35812285    -0.20540
F1947       F  0.59429401  0.32196510  0.32581543    -0.20220
F1948       F  0.66524070  0.14980547  0.40279683    -0.20270
F1949       F  0.67663941  0.15489722  0.33981344    -0.20600
F1950       F  0.62195582  0.13814565  0.36190457    -0.23270
C1951       C  0.86158990  0.26404385  0.12093304    -0.06110
C1952       C  0.89817029  0.25642241  0.11067114    -0.00180
C1953       C  0.90584050  0.25346257  0.07058180    -0.08750
C1954       C  0.87757188  0.26102789  0.04355152    -0.06130
C1955       C  0.84079180  0.26823441  0.05392010    -0.00190
C1956       C  0.83289034  0.26808400  0.09393423    -0.08660
C1957       C  0.79511547  0.27680558  0.10927140     0.61720
H1958       H  0.85531382  0.26598341  0.15089700     0.12410
H1959       H  0.88371195  0.25946600  0.01355401     0.12420
C1960       C  0.94331043  0.24104610  0.05542546     0.61950
F1961       F  0.79139502  0.26699333  0.14721480    -0.23220
F1962       F  0.76865914  0.25965646  0.08986207    -0.20540
F1963       F  0.78998009  0.31326137  0.10594614    -0.20220
F1964       F  0.95030639  0.20566049  0.06629954    -0.20270
F1965       F  0.97031563  0.26189348  0.06899459    -0.20600
F1966       F  0.94540534  0.24316293  0.01623739    -0.23270
C1967       C  0.86001060  0.13660346  0.48741964    -0.06110
C1968       C  0.82608020  0.12701318  0.47256829    -0.00180
C1969       C  0.82347488  0.09066727  0.46226875    -0.08750
C1970       C  0.85463880  0.06665322  0.46634167    -0.06130
C1971       C  0.88946218  0.07818569  0.97670600    -0.00190
C1972       C  0.89122716  0.11408451  0.98872855    -0.08660
C1973       C  0.92538129  0.13286456  0.99998672     0.61720
H1974       H  0.86241892  0.16233414  0.00042730     0.12410
H1975       H  0.85247981  0.03885694  0.45921367     0.12420
C1976       C  0.78985118  0.07792526  0.44363576     0.61950
F1977       F  0.92844439  0.16432226  0.97862878    -0.23220
F1978       F  0.95707477  0.11301058  0.99427303    -0.20540
F1979       F  0.92225657  0.14146984  0.03776172    -0.20220
F1980       F  0.78779631  0.09476329  0.40875189    -0.20270
F1981       F  0.75875629  0.08618520  0.46486682    -0.20600
F1982       F  0.79156284  0.04133323  0.43822725    -0.23270
C1983       C  0.59400868  0.40787581  0.47699881    -0.06110
C1984       C  0.57905331  0.41132782  0.44059805    -0.00180
C1985       C  0.60079733  0.39821595  0.40991997    -0.08750
C1986       C  0.63493682  0.37927153  0.41719948    -0.06130
C1987       C  0.64941560  0.37479204  0.45404795    -0.00190
C1988       C  0.62878342  0.39098208  0.48403121    -0.08660
C1989       C  0.64270527  0.38949868  0.02414953     0.61720
H1990       H  0.57803529  0.41879959  0.50034901     0.12410
H1991       H  0.65008664  0.36686911  0.39413053     0.12420
C1992       C  0.58701263  0.40296446  0.36983780     0.61950
F1993       F  0.62325320  0.41328066  0.04690006    -0.23220
F1994       F  0.67874635  0.39897436  0.02420140    -0.20540
F1995       F  0.63970287  0.35527601  0.03922144    -0.20220
F1996       F  0.58666516  0.43870422  0.35886246    -0.20270
F1997       F  0.55210337  0.39017282  0.36742271    -0.20600
F1998       F  0.60905772  0.38471112  0.34469251    -0.23270
C1999       C  0.67353035  0.49620275  0.37571189    -0.06110
C2000       C  0.67926339  0.50626069  0.33764263    -0.00180
C2001       C  0.64817627  0.02177780  0.31864129    -0.08750
C2002       C  0.61360928  0.02514788  0.33736962    -0.06130
C2003       C  0.60724644  0.01428025  0.37535020    -0.00190
C2004       C  0.63884337  0.49998184  0.39479360    -0.08660
C2005       C  0.63986558  0.48762577  0.43566734     0.61720
H2006       H  0.69676475  0.48447630  0.39092586     0.12410
H2007       H  0.59065558  0.03629577  0.32129990     0.12420
C2008       C  0.64877051  0.03443535  0.27781820     0.61950
F2009       F  0.65292407  0.45259626  0.43773434    -0.23220
F2010       F  0.60656126  0.48973562  0.45412984    -0.20540
F2011       F  0.66438818  0.50810834  0.45399240    -0.20220
F2012       F  0.62675729  0.01279806  0.25754774    -0.20270
F2013       F  0.68335331  0.03348067  0.26223301    -0.20600
F2014       F  0.63514731  0.06945780  0.27501877    -0.23270
C2015       C  0.83595360  0.47946231  0.04046920    -0.06110
C2016       C  0.86771669  0.46162759  0.05530671    -0.00180
C2017       C  0.86697231  0.45210725  0.09503539    -0.08750
C2018       C  0.83560134  0.46048576  0.11716574    -0.06130
C2019       C  0.80493136  0.47978195  0.10316966    -0.00190
C2020       C  0.80476366  0.48897171  0.06386289    -0.08660
C2021       C  0.77205372  0.00946077  0.04749473     0.61720
H2022       H  0.83657342  0.48795028  0.01091764     0.12410
H2023       H  0.83579702  0.45290493  0.14706046     0.12420
C2024       C  0.89826957  0.43438925  0.11774802     0.61950
F2025       F  0.77715852  0.01721529  0.00934703    -0.23220
F2026       F  0.76638826  0.04133021  0.06607386    -0.20540
F2027       F  0.74121916  0.98929049  0.05177411    -0.20220
F2028       F  0.93014381  0.42784945  0.09761785    -0.20270
F2029       F  0.88699745  0.40199304  0.13291442    -0.20600
F2030       F  0.90660339  0.45619522  0.14724233    -0.23270
C2031       C  0.53067495  0.37814969  0.07746478    -0.06110
C2032       C  0.49449618  0.38203290  0.06362467    -0.00180
C2033       C  0.96876843  0.35641484  0.07652633    -0.08750
C2034       C  0.97936428  0.33056443  0.10400741    -0.06130
C2035       C  0.51526358  0.32552707  0.11780857    -0.00190
C2036       C  0.54187591  0.34940830  0.10318233    -0.08660
C2037       C  0.58192315  0.34390796  0.11286709     0.61720
H2038       H  0.55065534  0.39650680  0.06634146     0.12410
H2039       H  0.95879928  0.31234504  0.11364201     0.12420
C2040       C  0.93124942  0.35187257  0.05871382     0.61950
F2041       F  0.60167946  0.37346116  0.10259039    -0.23220
F2042       F  0.59639968  0.31457778  0.09409079    -0.20540
F2043       F  0.58637329  0.33818236  0.15113139    -0.20220
F2044       F  0.93642267  0.33341591  0.02556495    -0.20270
F2045       F  0.91276804  0.38390840  0.05083899    -0.20600
F2046       F  0.90816694  0.33257658  0.08226083    -0.23270
C2047       C  0.95099845  0.16940066  0.34718888    -0.06110
C2048       C  0.98186792  0.18803943  0.33481288    -0.00180
C2049       C  0.01465526  0.17725064  0.35318890    -0.08750
C2050       C  0.01930198  0.14105989  0.36655005    -0.06130
C2051       C  0.98936586  0.11864237  0.37278633    -0.00190
C2052       C  0.95415075  0.13504326  0.36594741    -0.08660
C2053       C  0.92055693  0.11817297  0.38221216     0.61720
H2054       H  0.92441316  0.18174066  0.34185789     0.12410
H2055       H  0.54547866  0.13228121  0.37816494     0.12420
C2056       C  0.52929071  0.20391797  0.37968712     0.61950
F2057       F  0.88917204  0.13974190  0.37806673    -0.23220
F2058       F  0.92600198  0.11348158  0.41988578    -0.20540
F2059       F  0.91560563  0.08530942  0.36629160    -0.20220
F2060       F  0.50716425  0.20523083  0.41182798    -0.20270
F2061       F  0.52896453  0.23752660  0.36312740    -0.20600
F2062       F  0.56425444  0.19406591  0.39073880    -0.23270
C2063       C  0.64283812  0.06016946  0.17641223    -0.06110
C2064       C  0.67428511  0.07657813  0.18694128    -0.00180
C2065       C  0.68365898  0.10633231  0.16592555    -0.08750
C2066       C  0.67906067  0.10407138  0.12728502    -0.06130
C2067       C  0.65443209  0.07868821  0.11217605    -0.00190
C2068       C  0.64189869  0.05156969  0.13802746    -0.08660
C2069       C  0.64065390  0.01152413  0.12944152     0.61720
H2070       H  0.63139619  0.04190792  0.19713603     0.12410
H2071       H  0.68644878  0.12790431  0.11169426     0.12420
C2072       C  0.70232785  0.13717720  0.18310512     0.61950
F2073       F  0.63568486  0.49213846  0.16317908    -0.23220
F2074       F  0.67303314  0.99994744  0.11253624    -0.20540
F2075       F  0.61203621  0.00257922  0.10766581    -0.20220
F2076       F  0.73729084  0.13978576  0.16803182    -0.20270
F2077       F  0.70454389  0.13251077  0.22205770    -0.20600
F2078       F  0.68249909  0.16864685  0.17518028    -0.23270
C2079       C  0.61988444  0.16214163  0.10490420    -0.06110
C2080       C  0.61066145  0.12610351  0.11083698    -0.00180
C2081       C  0.58463141  0.11729915  0.14171433    -0.08750
C2082       C  0.56964965  0.14533223  0.16130252    -0.06130
C2083       C  0.57266530  0.17972386  0.14758014    -0.00190
C2084       C  0.59936655  0.18957141  0.12117310    -0.08660
C2085       C  0.60647649  0.22839693  0.11129738     0.61720
H2086       H  0.64270661  0.16909043  0.08726474     0.12410
H2087       H  0.55077210  0.14021593  0.18490069     0.12420
C2088       C  0.56517527  0.08255577  0.15458239     0.61950
F2089       F  0.63516324  0.23185739  0.08562199    -0.23220
F2090       F  0.61520046  0.24593313  0.14376243    -0.20540
F2091       F  0.57551476  0.24443289  0.09535915    -0.20220
F2092       F  0.57282951  0.07441621  0.19212468    -0.20270
F2093       F  0.57203023  0.05269856  0.13376524    -0.20600
F2094       F  0.52775658  0.08837034  0.15372659    -0.23270
C2095       C  0.65672170  0.16862415  0.01636481    -0.06110
C2096       C  0.69263765  0.16901546  0.02971698    -0.00180
C2097       C  0.71035800  0.13668858  0.04216361    -0.08750
C2098       C  0.68854687  0.10672951  0.04610370    -0.06130
C2099       C  0.64991654  0.11215811  0.04806166    -0.00190
C2100       C  0.63537150  0.13919628  0.02284343    -0.08660
C2101       C  0.59978912  0.13901103  0.00117379     0.61720
H2102       H  0.64438659  0.19260160  0.50229697     0.12410
H2103       H  0.70149088  0.08256556  0.05786377     0.12420
C2104       C  0.74957835  0.13298347  0.05637311     0.61950
F2105       F  0.60678436  0.15276336  0.46362194    -0.23220
F2106       F  0.57335785  0.16033123  0.01884566    -0.20540
F2107       F  0.58767346  0.10536708  0.49569349    -0.20220
F2108       F  0.76601946  0.16530687  0.06035160    -0.20270
F2109       F  0.77030575  0.11235210  0.03179976    -0.20600
F2110       F  0.75031731  0.11580145  0.09151795    -0.23270
C2111       C  0.56761849  0.02638442  0.04937918    -0.06110
C2112       C  0.53352626  0.04432334  0.05382599    -0.00180
C2113       C  0.52988641  0.07947894  0.06535352    -0.08750
C2114       C  0.56146527  0.09682622  0.06893677    -0.06130
C2115       C  0.59648154  0.07875729  0.06829786    -0.00190
C2116       C  0.59960762  0.04508593  0.05174799    -0.08660
C2117       C  0.63382863  0.03119389  0.03131429     0.61720
H2118       H  0.56861178  0.00011398  0.03685222     0.12410
H2119       H  0.55803424  0.12521277  0.07368872     0.12420
C2120       C  0.99422121  0.10162223  0.06877042     0.61950
F2121       F  0.63133811  0.49577045  0.02204569    -0.23220
F2122       F  0.66470479  0.03309892  0.05241351    -0.20540
F2123       F  0.63835009  0.05176144  0.99863438    -0.20220
F2124       F  0.98957647  0.11469384  0.10467996    -0.20270
F2125       F  0.96382763  0.08223970  0.06131691    -0.20600
F2126       F  0.99605775  0.13102364  0.04430602    -0.23270
C2127       C  0.85789117  0.43375621  0.37623309    -0.06110
C2128       C  0.86565261  0.39726938  0.38562868    -0.00180
C2129       C  0.88560939  0.39253162  0.41923261    -0.08750
C2130       C  0.91637403  0.41327561  0.42169934    -0.06130
C2131       C  0.91748910  0.44563166  0.40042332    -0.00190
C2132       C  0.88491252  0.45869952  0.38302857    -0.08660
C2133       C  0.87963566  0.49774665  0.37108776     0.61720
H2134       H  0.83639221  0.44181035  0.35702552     0.12410
H2135       H  0.93753892  0.40509788  0.44118192     0.12420
C2136       C  0.86898128  0.37614710  0.45492668     0.61950
F2137       F  0.84478015  0.00551830  0.35864668    -0.23220
F2138       F  0.90459160  0.00633001  0.34273625    -0.20540
F2139       F  0.88587912  0.01899590  0.40182494    -0.20220
F2140       F  0.83462087  0.36367249  0.44840423    -0.20270
F2141       F  0.86499927  0.40177865  0.48224854    -0.20600
F2142       F  0.89103691  0.34839357  0.46902474    -0.23270
C2143       C  0.85551996  0.31300065  0.39406056    -0.06110
C2144       C  0.84379104  0.33926819  0.36733967    -0.00180
C2145       C  0.80735942  0.33617011  0.35317301    -0.08750
C2146       C  0.79098375  0.30272410  0.35782888    -0.06130
C2147       C  0.80072335  0.28167285  0.38964002    -0.00190
C2148       C  0.83753803  0.28149273  0.40013897    -0.08660
C2149       C  0.85740171  0.25013181  0.41995124     0.61720
H2150       H  0.87878830  0.31699885  0.41090557     0.12410
H2151       H  0.76346070  0.30026857  0.34733811     0.12420
C2152       C  0.78155738  0.36703529  0.34068970     0.61950
F2153       F  0.89334735  0.25730774  0.42743604    -0.23220
F2154       F  0.85796453  0.22047425  0.39744442    -0.20540
F2155       F  0.84075235  0.24239485  0.45394113    -0.20220
F2156       F  0.76877057  0.36178580  0.30480393    -0.20270
F2157       F  0.79714397  0.39969149  0.34116111    -0.20600
F2158       F  0.75165456  0.36860036  0.36519632    -0.23270
C2159       C  0.87881300  0.41489596  0.30185790    -0.06110
C2160       C  0.86440706  0.38125360  0.31285023    -0.00180
C2161       C  0.84898574  0.36163571  0.28214342    -0.08750
C2162       C  0.83739423  0.38170687  0.25008919    -0.06130
C2163       C  0.84266414  0.41837500  0.24751482    -0.00190
C2164       C  0.87102347  0.43221643  0.26773156    -0.08660
C2165       C  0.88367042  0.47015467  0.26115139     0.61720
H2166       H  0.89671207  0.42854252  0.31981441     0.12410
H2167       H  0.81970586  0.36996902  0.22978056     0.12420
C2168       C  0.84437129  0.32132767  0.27802702     0.61950
F2169       F  0.91978904  0.47307110  0.27114399    -0.23220
F2170       F  0.86263803  0.49306182  0.28324923    -0.20540
F2171       F  0.88058548  0.98049248  0.22354337    -0.20220
F2172       F  0.80792667  0.31401667  0.27377199    -0.20270
F2173       F  0.85773612  0.30016064  0.30732529    -0.20600
F2174       F  0.86231974  0.31064852  0.24525594    -0.23270
C2175       C  0.92678351  0.29827362  0.32972976    -0.06110
C2176       C  0.93208775  0.31618206  0.29468485    -0.00180
C2177       C  0.94071636  0.35336594  0.29472728    -0.08750
C2178       C  0.93788393  0.37024690  0.32999683    -0.06130
C2179       C  0.91375507  0.35469422  0.35640780    -0.00190
C2180       C  0.92454987  0.31838341  0.36222783    -0.08660
C2181       C  0.95238647  0.30864414  0.39238165     0.61720
H2182       H  0.92751924  0.26932395  0.33223772     0.12410
H2183       H  0.94498288  0.39781523  0.33287999     0.12420
C2184       C  0.94583046  0.37641946  0.25887536     0.61950
F2185       F  0.98496245  0.32413388  0.38268460    -0.23220
F2186       F  0.95828381  0.27187813  0.39572997    -0.20540
F2187       F  0.94132062  0.32132381  0.42712892    -0.20220
F2188       F  0.91641170  0.37344639  0.23532381    -0.20270
F2189       F  0.97642049  0.36685456  0.23904926    -0.20600
F2190       F  0.94963942  0.41190717  0.26705433    -0.23270
C2191       C  0.87159516  0.36776803  0.85487652    -0.02810
C2192       C  0.62826944  0.09774437  0.58293862    -0.02810
O2193       O  0.96809415  0.47796402  0.87380623    -0.80460
O2194       O  0.91947444  0.02212785  0.49155024    -0.80490
O2195       O  0.91049573  0.45309115  0.99793137    -0.80490
O2196       O  0.01485336  0.08440075  0.92532697    -0.80440
O2197       O  0.92907289  0.47695819  0.55010883    -0.80560
O2198       O  0.98296041  0.05220580  0.88772159    -0.80480
O2199       O  0.95171609  0.06071339  0.95793562    -0.80460
O2200       O  0.96230122  0.47631529  0.93427872    -0.80500
C2201       C  0.94959258  0.46778953  0.90218219     1.09230
C2202       C  0.92220900  0.05227813  0.47522517     1.09110
C2203       C  0.90372686  0.46256066  0.03337318     1.09250
C2204       C  0.99600346  0.08344107  0.89565297     1.09130
O2205       O  0.54186422  0.00995270  0.86424572    -0.80460
O2206       O  0.99250946  0.44291019  0.53114027    -0.80540
O2207       O  0.51674491  0.42336702  0.96133653    -0.80480
O2208       O  0.52028179  0.04433853  0.49243481    -0.80460
O2209       O  0.98208168  0.01930410  0.53479976    -0.80510
O2210       O  0.53595362  0.45280948  0.90982531    -0.80470
O2211       O  0.55527831  0.02114710  0.92363033    -0.80430
O2212       O  0.96403316  0.39909708  0.00700099    -0.80500
Co2213     Co  0.50677145  0.49991624  0.90346350     1.51530
Co2214     Co  0.95779533  0.48444708  0.50659634     1.51690
Co2215     Co  0.96472619  0.43955962  0.97388883     1.51570
Co2216     Co  0.00105087  0.03776816  0.94341517     1.51470
O2217       O  0.98148537  0.49005172  0.95592718    -1.42400
C2218       C  0.56659863  0.01573993  0.88854474     1.09150
C2219       C  0.48383068  0.40924378  0.53292085     1.09240
C2220       C  0.54146311  0.42999431  0.93668293     1.09180
C2221       C  0.50960998  0.03625814  0.52559799     1.09160
O2222       O  0.77363511  0.32588722  0.92758809    -0.80460
O2223       O  0.68964637  0.19738608  0.94084192    -0.80490
O2224       O  0.78980804  0.20979512  0.90953000    -0.80490
O2225       O  0.66662751  0.31419121  0.96424267    -0.80440
O2226       O  0.73522823  0.21715143  0.89791379    -0.80560
O2227       O  0.71223026  0.35040367  0.96933809    -0.80480
O2228       O  0.66155013  0.24796365  0.95354399    -0.80360
O2229       O  0.75961675  0.27337721  0.94460548    -0.80500
C2230       C  0.77625824  0.29353189  0.92022043     1.09230
C2231       C  0.66461533  0.22098406  0.93287404     1.09110
C2232       C  0.76472201  0.20457185  0.88614761     1.09250
C2233       C  0.67840502  0.34516136  0.96233491     1.09130
O2234       O  0.75090838  0.31378608  0.53410884    -0.80460
O2235       O  0.76567975  0.15981829  0.95298970    -0.80540
O2236       O  0.78912209  0.24653112  0.01922173    -0.80480
O2237       O  0.68989902  0.23113741  0.52894105    -0.80460
O2238       O  0.73986576  0.20404031  0.00818591    -0.80510
O2239       O  0.81006926  0.29611129  0.99667559    -0.80470
O2240       O  0.69319766  0.30621418  0.54057442    -0.80430
O2241       O  0.80935226  0.18732409  0.98020811    -0.80500
Co2242     Co  0.75929621  0.31794170  0.98014154     1.51530
Co2243     Co  0.74080584  0.21208830  0.95414772     1.51690
Co2244     Co  0.78203701  0.22993794  0.96575788     1.51570
Co2245     Co  0.68351647  0.27310492  0.99534219     1.51470
O2246       O  0.73455484  0.26716874  0.96559366    -1.42400
C2247       C  0.72217487  0.32042636  0.55165857     1.09150
C2248       C  0.79796456  0.15811716  0.96855813     1.09240
C2249       C  0.81164690  0.27111597  0.02248777     1.09180
C2250       C  0.70983576  0.20329937  0.52515971     1.09160
O2251       O  0.92533263  0.26289503  0.75992194    -0.80460
O2252       O  0.55017409  0.28006107  0.65935128    -0.80490
O2253       O  0.52855777  0.32854050  0.73692716    -0.80490
O2254       O  0.95354476  0.22778623  0.63438116    -0.80440
O2255       O  0.58011807  0.30036061  0.72564656    -0.80560
O2256       O  0.92629752  0.25986487  0.67643623    -0.80480
O2257       O  0.99018081  0.28510159  0.66209502    -0.80460
O2258       O  0.96190379  0.30100699  0.73963520    -0.80500
C2259       C  0.93632800  0.29425371  0.76108544     1.09230
C2260       C  0.51992404  0.29572072  0.64832454     1.09110
C2261       C  0.56231102  0.32946440  0.72924229     1.09250
C2262       C  0.92665698  0.24788659  0.64182510     1.09130
O2263       O  0.91386206  0.20218225  0.71943213    -0.80460
O2264       O  0.57814120  0.23225442  0.76271847    -0.80540
O2265       O  0.98616045  0.24833654  0.80399658    -0.80480
O2266       O  0.52238612  0.21863309  0.64773489    -0.80460
O2267       O  0.55096967  0.20641863  0.69917326    -0.80510
O2268       O  0.97247560  0.20274946  0.76847672    -0.80470
O2269       O  0.96556825  0.18259375  0.69434112    -0.80430
O2270       O  0.55254890  0.27657263  0.79410821    -0.80500
Co2271     Co  0.95438016  0.23231662  0.72366206     1.51530
Co2272     Co  0.56176328  0.25350285  0.71160966     1.51690
Co2273     Co  0.50573927  0.28805239  0.76687392     1.51570
Co2274     Co  0.98112698  0.23617753  0.67899197     1.51470
O2275       O  0.00741258  0.25301872  0.72582311    -1.42400
C2276       C  0.93224112  0.17599920  0.70625554     1.09150
C2277       C  0.57570520  0.25046632  0.79289587     1.09240
C2278       C  0.98038675  0.21465982  0.80070993     1.09180
C2279       C  0.54839505  0.20352341  0.66472878     1.09160
O2280       O  0.80993354  0.47198079  0.73723081    -0.80460
O2281       O  0.74235354  0.48543152  0.63004680    -0.80490
O2282       O  0.73255929  0.40702608  0.71632824    -0.80490
O2283       O  0.80749206  0.06305706  0.69104741    -0.80440
O2284       O  0.76675195  0.43709144  0.68037295    -0.80560
O2285       O  0.82216807  0.04200198  0.74845359    -0.80480
O2286       O  0.78870743  0.00160510  0.66501985    -0.80460
O2287       O  0.78274951  0.42959872  0.76955031    -0.80500
C2288       C  0.80935115  0.44017964  0.74908150     1.09230
C2289       C  0.77617380  0.99114002  0.63296916     1.09110
C2290       C  0.74995236  0.40875167  0.68543943     1.09250
C2291       C  0.83002453  0.06091466  0.71742851     1.09130
O2292       O  0.76081673  0.04518074  0.80095408    -0.80460
O2293       O  0.68583883  0.44939252  0.68944108    -0.80540
O2294       O  0.72199406  0.46318736  0.81149261    -0.80480
O2295       O  0.73608750  0.05907452  0.68312734    -0.80460
O2296       O  0.69733083  0.01713770  0.68814243    -0.80510
O2297       O  0.73985352  0.51856902  0.80695178    -0.80470
O2298       O  0.76107581  0.07572571  0.74873969    -0.80430
O2299       O  0.67958429  0.45451154  0.75103548    -0.80500
Co2300     Co  0.78256291  0.50393322  0.76989548     1.51530
Co2301     Co  0.73299205  0.48027806  0.68448452     1.51690
Co2302     Co  0.73090681  0.44291491  0.76044026     1.51570
Co2303     Co  0.77271232  0.03248370  0.71107544     1.51470
O2304       O  0.74100586  0.49373421  0.73622165    -1.42400
C2305       C  0.76043113  0.07641023  0.78497270     1.09150
C2306       C  0.66752003  0.44336513  0.72068625     1.09240
C2307       C  0.71560810  0.49586560  0.81812594     1.09180
C2308       C  0.70387358  0.04965817  0.68722224     1.09160
C2309       C  0.87279458  0.10106295  0.74525328    -0.06110
C2310       C  0.86288029  0.08364289  0.71335797    -0.00180
C2311       C  0.88146781  0.09198868  0.67829337    -0.08750
C2312       C  0.90666322  0.12045815  0.67650142    -0.06130
C2313       C  0.91459839  0.13978507  0.70883956    -0.00190
C2314       C  0.89834438  0.12813676  0.74362605    -0.08660
C2315       C  0.91001098  0.14249036  0.77998881     0.61720
H2316       H  0.85887561  0.09425278  0.77165041     0.12410
H2317       H  0.91867809  0.12883658  0.64961963     0.12420
C2318       C  0.87511083  0.07088042  0.64303337     0.61950
F2319       F  0.89488687  0.12401835  0.81018727    -0.23220
F2320       F  0.89888684  0.17803505  0.78281696    -0.20540
F2321       F  0.94762228  0.13780044  0.78109055    -0.20220
F2322       F  0.84133294  0.08037280  0.62804887    -0.20270
F2323       F  0.87653665  0.03456612  0.65199072    -0.20600
F2324       F  0.90156430  0.07726453  0.61543025    -0.23270
C2325       C  0.61458259  0.36121307  0.75148227    -0.06110
C2326       C  0.58357801  0.36316234  0.72880156    -0.00180
C2327       C  0.57757721  0.39474235  0.70573658    -0.08750
C2328       C  0.60565950  0.42008259  0.70268628    -0.06130
C2329       C  0.63723818  0.41719594  0.72504808    -0.00190
C2330       C  0.63905218  0.38906927  0.75344491    -0.08660
C2331       C  0.66637192  0.38697357  0.78602001     0.61720
H2332       H  0.61997379  0.33688095  0.76782357     0.12410
H2333       H  0.60212041  0.44273064  0.68337637     0.12420
C2334       C  0.54271354  0.40368800  0.68432314     0.61950
F2335       F  0.66263610  0.35650914  0.80876912    -0.23220
F2336       F  0.66094202  0.41636551  0.80866710    -0.20540
F2337       F  0.70184083  0.38572235  0.77311115    -0.20220
F2338       F  0.52306457  0.43034670  0.70301516    -0.20270
F2339       F  0.52088919  0.37471390  0.68120604    -0.20600
F2340       F  0.55104476  0.41632175  0.64815222    -0.23270
C2341       C  0.71311818  0.33375064  0.62153488    -0.06110
C2342       C  0.72536818  0.34479657  0.58526211    -0.00180
C2343       C  0.74853542  0.37511446  0.58320055    -0.08750
C2344       C  0.75522532  0.39437639  0.61625506    -0.06130
C2345       C  0.74332577  0.38356209  0.65262545    -0.00190
C2346       C  0.72370735  0.35101591  0.65516040    -0.08660
C2347       C  0.71590919  0.33274184  0.69290212     0.61720
H2348       H  0.69763333  0.30959497  0.62367156     0.12410
H2349       H  0.77167789  0.41762593  0.61397715     0.12420
C2350       C  0.76981596  0.38567924  0.54730119     0.61950
F2351       F  0.70716430  0.29728911  0.68892872    -0.23220
F2352       F  0.68673193  0.35016978  0.70993769    -0.20540
F2353       F  0.74621314  0.33328825  0.71581425    -0.20220
F2354       F  0.74746233  0.38770996  0.51635755    -0.20270
F2355       F  0.79829674  0.36111102  0.54100520    -0.20600
F2356       F  0.78500985  0.41866498  0.54998255    -0.23270
C2357       C  0.77843627  0.14231792  0.79687818    -0.06110
C2358       C  0.75965768  0.11109117  0.80904689    -0.00180
C2359       C  0.74339490  0.11277423  0.84621925    -0.08750
C2360       C  0.74633344  0.14368809  0.86846322    -0.06130
C2361       C  0.76550770  0.17405890  0.85726755    -0.00190
C2362       C  0.78164256  0.17343320  0.82019841    -0.08660
C2363       C  0.80142870  0.20579882  0.80520990     0.61720
H2364       H  0.79141286  0.14198234  0.76911876     0.12410
H2365       H  0.73316796  0.14418457  0.89598500     0.12420
C2366       C  0.72055770  0.08299015  0.86248924     0.61950
F2367       F  0.81456456  0.20112451  0.76862713    -0.23220
F2368       F  0.83069501  0.21196959  0.82808815    -0.20540
F2369       F  0.77770127  0.23548336  0.80515176    -0.20220
F2370       F  0.74217526  0.05258423  0.86953953    -0.20270
F2371       F  0.69367901  0.07699626  0.83687665    -0.20600
F2372       F  0.70351224  0.09126711  0.89652765    -0.23270
C2373       C  0.62076614  0.25600277  0.89150198    -0.06110
C2374       C  0.64043190  0.22299934  0.89693989    -0.00180
C2375       C  0.63774102  0.19842450  0.86652371    -0.08750
C2376       C  0.61865500  0.20901320  0.83253316    -0.06130
C2377       C  0.59947746  0.24227874  0.82785033    -0.00190
C2378       C  0.60116518  0.26626881  0.85861775    -0.08660
C2379       C  0.58300912  0.30354849  0.85771185     0.61720
H2380       H  0.62067790  0.27500822  0.91391270     0.12410
H2381       H  0.61700100  0.18992053  0.81009448     0.12420
C2382       C  0.65091420  0.15986965  0.86825312     0.61950
F2383       F  0.59171686  0.32322632  0.88858326    -0.23220
F2384       F  0.54556790  0.30175668  0.85794163    -0.20540
F2385       F  0.59424328  0.32191387  0.82570138    -0.20220
F2386       F  0.66520733  0.14970504  0.90278729    -0.20270
F2387       F  0.67668987  0.15469815  0.83980115    -0.20600
F2388       F  0.62194584  0.13810243  0.86184825    -0.23270
C2389       C  0.86161505  0.26388852  0.62092704    -0.06110
C2390       C  0.89819369  0.25625292  0.61065246    -0.00180
C2391       C  0.90586198  0.25339093  0.57055122    -0.08750
C2392       C  0.87759015  0.26100885  0.54353234    -0.06130
C2393       C  0.84081455  0.26823187  0.55391100    -0.00190
C2394       C  0.83292052  0.26805680  0.59392798    -0.08660
C2395       C  0.79515265  0.27685714  0.60924802     0.61720
H2396       H  0.85534457  0.26576619  0.65089679     0.12410
H2397       H  0.88372644  0.25949398  0.51353024     0.12420
C2398       C  0.94334500  0.24104492  0.55536578     0.61950
F2399       F  0.79145003  0.26727781  0.64725418    -0.23220
F2400       F  0.76869454  0.25957820  0.58997210    -0.20540
F2401       F  0.78999476  0.31329504  0.60567862    -0.20220
F2402       F  0.95042482  0.20567378  0.56622485    -0.20270
F2403       F  0.97031456  0.26193453  0.56892910    -0.20600
F2404       F  0.94541619  0.24317413  0.51617688    -0.23270
C2405       C  0.85940228  0.13592586  0.98919328    -0.06110
C2406       C  0.82586964  0.12668044  0.97319465    -0.00180
C2407       C  0.82352254  0.09053709  0.96210020    -0.08750
C2408       C  0.85474137  0.06657482  0.96599678    -0.06130
C2409       C  0.88950855  0.07830487  0.47652944    -0.00190
C2410       C  0.89164602  0.11451199  0.48743895    -0.08660
C2411       C  0.92599938  0.13338590  0.49797461     0.61720
H2412       H  0.86345742  0.16337739  0.49750532     0.12410
H2413       H  0.85274667  0.03890555  0.95834449     0.12420
C2414       C  0.79014074  0.07798397  0.94289828     0.61950
F2415       F  0.92955759  0.16389985  0.47519502    -0.23220
F2416       F  0.95753124  0.11300499  0.49353029    -0.20540
F2417       F  0.92273294  0.14360403  0.53524769    -0.20220
F2418       F  0.78867449  0.09491877  0.90802840    -0.20270
F2419       F  0.75878632  0.08629987  0.96370636    -0.20600
F2420       F  0.79179513  0.04139964  0.93742630    -0.23270
C2421       C  0.59389652  0.40767712  0.97719643    -0.06110
C2422       C  0.57893001  0.41116386  0.94080507    -0.00180
C2423       C  0.60064491  0.39803389  0.91010967    -0.08750
C2424       C  0.63475135  0.37901788  0.91736631    -0.06130
C2425       C  0.64927285  0.37456397  0.95419796    -0.00190
C2426       C  0.62868034  0.39078019  0.98419305    -0.08660
C2427       C  0.64269389  0.38958719  0.52403232     0.61720
H2428       H  0.57795753  0.41863728  0.00055124     0.12410
H2429       H  0.64987711  0.36660854  0.89428546     0.12420
C2430       C  0.58691086  0.40293413  0.87002289     0.61950
F2431       F  0.62323985  0.41336929  0.54678399    -0.23220
F2432       F  0.67876511  0.39895265  0.52422854    -0.20540
F2433       F  0.63953795  0.35534953  0.53900869    -0.20220
F2434       F  0.58669636  0.43870300  0.85916073    -0.20270
F2435       F  0.55195370  0.39027441  0.86753775    -0.20600
F2436       F  0.60892396  0.38467807  0.84484010    -0.23270
C2437       C  0.67352067  0.49624792  0.87580382    -0.06110
C2438       C  0.67922293  0.50635835  0.83774465    -0.00180
C2439       C  0.64821691  0.02172088  0.81848724    -0.08750
C2440       C  0.61356961  0.02499889  0.83707867    -0.06130
C2441       C  0.60712344  0.01421554  0.87507868    -0.00190
C2442       C  0.63886039  0.50006366  0.89494054    -0.08660
C2443       C  0.63982271  0.48732704  0.93567395     0.61720
H2444       H  0.69673332  0.48437820  0.89094194     0.12410
H2445       H  0.59065439  0.03611182  0.82092819     0.12420
C2446       C  0.64903212  0.03465602  0.77773942     0.61950
F2447       F  0.65250045  0.45217608  0.93733721    -0.23220
F2448       F  0.60652801  0.48963231  0.95414758    -0.20540
F2449       F  0.66463908  0.50731289  0.95420194    -0.20220
F2450       F  0.62720003  0.01315668  0.75710999    -0.20270
F2451       F  0.68371093  0.03387206  0.76239459    -0.20600
F2452       F  0.63536670  0.06967223  0.77511869    -0.23270
C2453       C  0.83600766  0.47934342  0.54040202    -0.06110
C2454       C  0.86778574  0.46152787  0.55523691    -0.00180
C2455       C  0.86708155  0.45211553  0.59499369    -0.08750
C2456       C  0.83574570  0.46057846  0.61714932    -0.06130
C2457       C  0.80506098  0.47985254  0.60314932    -0.00190
C2458       C  0.80484130  0.48891548  0.56381325    -0.08660
C2459       C  0.77176334  0.00921435  0.54764428     0.61720
H2460       H  0.83658501  0.48774243  0.51082477     0.12410
H2461       H  0.83597828  0.45306629  0.64706089     0.12420
C2462       C  0.89839546  0.43443340  0.61771030     0.61950
F2463       F  0.77679065  0.01685588  0.50947082    -0.23220
F2464       F  0.76608463  0.04114159  0.56612038    -0.20540
F2465       F  0.74096506  0.98901036  0.55204053    -0.20220
F2466       F  0.93023423  0.42779894  0.59755112    -0.20270
F2467       F  0.88710942  0.40209201  0.63300441    -0.20600
F2468       F  0.90679717  0.45632220  0.64711176    -0.23270
C2469       C  0.53076538  0.37793745  0.57732496    -0.06110
C2470       C  0.49457223  0.38186689  0.56354036    -0.00180
C2471       C  0.96881603  0.35629996  0.57650071    -0.08750
C2472       C  0.97941233  0.33044256  0.60397695    -0.06130
C2473       C  0.51533863  0.32533409  0.61769754    -0.00190
C2474       C  0.54196311  0.34919316  0.60303920    -0.08660
C2475       C  0.58201631  0.34369705  0.61270655     0.61720
H2476       H  0.55075752  0.39626223  0.56615953     0.12410
H2477       H  0.95882113  0.31227080  0.61366316     0.12420
C2478       C  0.93126719  0.35180144  0.55874009     0.61950
F2479       F  0.60175483  0.37327570  0.60246632    -0.23220
F2480       F  0.59650526  0.31439993  0.59388572    -0.20540
F2481       F  0.58647929  0.33792558  0.65096291    -0.20220
F2482       F  0.93636155  0.33324026  0.52564758    -0.20270
F2483       F  0.91286700  0.38385981  0.55077088    -0.20600
F2484       F  0.90815476  0.33262816  0.58237634    -0.23270
C2485       C  0.95112034  0.16935198  0.84717186    -0.06110
C2486       C  0.98205061  0.18781547  0.83462500    -0.00180
C2487       C  0.01488030  0.17689532  0.85281832    -0.08750
C2488       C  0.01942516  0.14067928  0.86607805    -0.06130
C2489       C  0.98935929  0.11851936  0.87272449    -0.00190
C2490       C  0.95418811  0.13513696  0.86623626    -0.08660
C2491       C  0.92067208  0.11887027  0.88347248     0.61720
H2492       H  0.92457675  0.18188908  0.84208526     0.12410
H2493       H  0.54565408  0.13175432  0.87746094     0.12420
C2494       C  0.52956306  0.20344859  0.87943084     0.61950
F2495       F  0.88922426  0.14015212  0.87833773    -0.23220
F2496       F  0.92632806  0.11583060  0.92132171    -0.20540
F2497       F  0.91565362  0.08532849  0.86917894    -0.20220
F2498       F  0.50745219  0.20469033  0.91158726    -0.20270
F2499       F  0.52927974  0.23710951  0.86299306    -0.20600
F2500       F  0.56451551  0.19350419  0.89043652    -0.23270
C2501       C  0.64238678  0.05861848  0.67488194    -0.06110
C2502       C  0.67333633  0.07550543  0.68615684    -0.00180
C2503       C  0.68279546  0.10543587  0.66546506    -0.08750
C2504       C  0.67896365  0.10328139  0.62671438    -0.06130
C2505       C  0.65448153  0.07810721  0.61106677    -0.00190
C2506       C  0.64203856  0.05052210  0.63635427    -0.08660
C2507       C  0.64157720  0.01059660  0.62707107     0.61720
H2508       H  0.63092518  0.03987585  0.69513993     0.12410
H2509       H  0.68654045  0.12720618  0.61142553     0.12420
C2510       C  0.70111780  0.13625448  0.68311938     0.61950
F2511       F  0.63473571  0.49304087  0.66463657    -0.23220
F2512       F  0.67378985  0.00004896  0.60913611    -0.20540
F2513       F  0.61259108  0.00140829  0.60594669    -0.20220
F2514       F  0.73626491  0.13904171  0.66857535    -0.20270
F2515       F  0.70281617  0.13140351  0.72208730    -0.20600
F2516       F  0.68130147  0.16770766  0.67509138    -0.23270
C2517       C  0.62019015  0.16174869  0.60490045    -0.06110
C2518       C  0.61076799  0.12572807  0.61036008    -0.00180
C2519       C  0.58439962  0.11675652  0.64086202    -0.08750
C2520       C  0.56900316  0.14471097  0.66032378    -0.06130
C2521       C  0.57250041  0.17921219  0.64710931    -0.00190
C2522       C  0.59965276  0.18912519  0.62123533    -0.08660
C2523       C  0.60709571  0.22797874  0.61185772     0.61720
H2524       H  0.64320181  0.16871303  0.58754914     0.12410
H2525       H  0.54973179  0.13950738  0.68354793     0.12420
C2526       C  0.56509757  0.08184636  0.65341338     0.61950
F2527       F  0.63616359  0.23150748  0.58666430    -0.23220
F2528       F  0.61542651  0.24520888  0.64463690    -0.20540
F2529       F  0.57643214  0.24427514  0.59558275    -0.20220
F2530       F  0.57255970  0.07368396  0.69100080    -0.20270
F2531       F  0.57236600  0.05209055  0.63254262    -0.20600
F2532       F  0.52764524  0.08734822  0.65224088    -0.23270
C2533       C  0.65657143  0.16918366  0.51659054    -0.06110
C2534       C  0.69249256  0.16948424  0.52994026    -0.00180
C2535       C  0.71028928  0.13709569  0.54207266    -0.08750
C2536       C  0.68861272  0.10700239  0.54547523    -0.06130
C2537       C  0.64995151  0.11223692  0.54730539    -0.00190
C2538       C  0.63537547  0.13957773  0.52247790    -0.08660
C2539       C  0.60029499  0.13927491  0.49994511     0.61720
H2540       H  0.64455431  0.19197467  0.00194100     0.12410
H2541       H  0.70162609  0.08275959  0.55698304     0.12420
C2542       C  0.74944928  0.13347857  0.55651313     0.61950
F2543       F  0.60527843  0.15312778  0.96492192    -0.23220
F2544       F  0.57363996  0.16110225  0.51659139    -0.20540
F2545       F  0.58745063  0.10501867  0.99665766    -0.20220
F2546       F  0.76555320  0.16588922  0.56111521    -0.20270
F2547       F  0.77052844  0.11335664  0.53178894    -0.20600
F2548       F  0.75014417  0.11582764  0.59140586    -0.23270
C2549       C  0.56668998  0.02674105  0.54992656    -0.06110
C2550       C  0.53281433  0.04515716  0.55414929    -0.00180
C2551       C  0.52972262  0.08062112  0.56481686    -0.08750
C2552       C  0.56156799  0.09770891  0.56763836    -0.06130
C2553       C  0.59630833  0.07912924  0.56728680    -0.00190
C2554       C  0.59889694  0.04520848  0.55142379    -0.08660
C2555       C  0.63247977  0.03110114  0.53011477     0.61720
H2556       H  0.56733233  0.00023577  0.53793355     0.12410
H2557       H  0.55866903  0.12621666  0.57195917     0.12420
C2558       C  0.99431655  0.10314587  0.56831912     0.61950
F2559       F  0.63191050  0.49611999  0.52207130    -0.23220
F2560       F  0.66414123  0.03400982  0.54972478    -0.20540
F2561       F  0.63549221  0.05083827  0.49668739    -0.20220
F2562       F  0.99027858  0.11678867  0.60405901    -0.20270
F2563       F  0.96366663  0.08386638  0.56156650    -0.20600
F2564       F  0.99611866  0.13218266  0.54336601    -0.23270
C2565       C  0.85815545  0.43366243  0.87612729    -0.06110
C2566       C  0.86589893  0.39717807  0.88553380    -0.00180
C2567       C  0.88586750  0.39242738  0.91913133    -0.08750
C2568       C  0.91662606  0.41318620  0.92162142    -0.06130
C2569       C  0.91774665  0.44554514  0.90035033    -0.00190
C2570       C  0.88518768  0.45859571  0.88290878    -0.08660
C2571       C  0.87994073  0.49762999  0.87091340     0.61720
H2572       H  0.83665369  0.44171530  0.85692121     0.12410
H2573       H  0.93776601  0.40504406  0.94115148     0.12420
C2574       C  0.86920004  0.37609205  0.95483420     0.61950
F2575       F  0.84475378  0.00538849  0.85866242    -0.23220
F2576       F  0.90452196  0.00613286  0.84253065    -0.20540
F2577       F  0.88604341  0.01884140  0.90165594    -0.20220
F2578       F  0.83479175  0.36371617  0.94832639    -0.20270
F2579       F  0.86530960  0.40173080  0.98215816    -0.20600
F2580       F  0.89117771  0.34827782  0.96892574    -0.23270
C2581       C  0.85560105  0.31293977  0.89405256    -0.06110
C2582       C  0.84388256  0.33919679  0.86732341    -0.00180
C2583       C  0.80743862  0.33611746  0.85318658    -0.08750
C2584       C  0.79104411  0.30268078  0.85785466    -0.06130
C2585       C  0.80078026  0.28161673  0.88966200    -0.00190
C2586       C  0.83759346  0.28145154  0.90018037    -0.08660
C2587       C  0.85745635  0.25010206  0.92000959     0.61720
H2588       H  0.87890310  0.31692765  0.91085384     0.12410
H2589       H  0.76351577  0.30024190  0.84736918     0.12420
C2590       C  0.78165167  0.36700047  0.84071409     0.61950
F2591       F  0.89340703  0.25727226  0.92747871    -0.23220
F2592       F  0.85800645  0.22042855  0.89752816    -0.20540
F2593       F  0.84081589  0.24239932  0.95400889    -0.20220
F2594       F  0.76883422  0.36175468  0.80483767    -0.20270
F2595       F  0.79726827  0.39964595  0.84117205    -0.20600
F2596       F  0.75176492  0.36859117  0.86523992    -0.23270
C2597       C  0.87890865  0.41475299  0.80173705    -0.06110
C2598       C  0.86448559  0.38113313  0.81278114    -0.00180
C2599       C  0.84896326  0.36153469  0.78212528    -0.08750
C2600       C  0.83724072  0.38162823  0.75013682    -0.06130
C2601       C  0.84254547  0.41829152  0.74754441    -0.00190
C2602       C  0.87100871  0.43209141  0.76764653    -0.08660
C2603       C  0.88371293  0.46999921  0.76101076     0.61720
H2604       H  0.89687375  0.42838392  0.81964019     0.12410
H2605       H  0.81946437  0.36990714  0.72990091     0.12420
C2606       C  0.84438013  0.32122581  0.77801009     0.61950
F2607       F  0.91987932  0.47284291  0.77086204    -0.23220
F2608       F  0.86280995  0.49293544  0.78319202    -0.20540
F2609       F  0.88068856  0.98037766  0.72351200    -0.20220
F2610       F  0.80793706  0.31388565  0.77378824    -0.20270
F2611       F  0.85778060  0.30007386  0.80730244    -0.20600
F2612       F  0.86232419  0.31056488  0.74522930    -0.23270
C2613       C  0.92686003  0.29805115  0.82963088    -0.06110
C2614       C  0.93214285  0.31592166  0.79455968    -0.00180
C2615       C  0.94075616  0.35311031  0.79454641    -0.08750
C2616       C  0.93797651  0.37002229  0.82980072    -0.06130
C2617       C  0.91386521  0.35451104  0.85625830    -0.00190
C2618       C  0.92462602  0.31819342  0.86211029    -0.08660
C2619       C  0.95246471  0.30846460  0.89226853     0.61720
H2620       H  0.92763106  0.26910220  0.83217098     0.12410
H2621       H  0.94509610  0.39758892  0.83264502     0.12420
C2622       C  0.94579165  0.37614096  0.75866066     0.61950
F2623       F  0.98504487  0.32393590  0.88255090    -0.23220
F2624       F  0.95835052  0.27169769  0.89564892    -0.20540
F2625       F  0.94141664  0.32117612  0.92700744    -0.20220
F2626       F  0.91628489  0.37319535  0.73522120    -0.20270
F2627       F  0.97630329  0.36653221  0.73871964    -0.20600
F2628       F  0.94967165  0.41162790  0.76680581    -0.23270
C2629       C  0.87151470  0.86794463  0.35523223    -0.02810
C2630       C  0.62809923  0.59795262  0.08396981    -0.02810
O2631       O  0.96815509  0.97792063  0.37419833    -0.80460
O2632       O  0.91971348  0.52201225  0.99154554    -0.80490
O2633       O  0.91037073  0.95328314  0.49827546    -0.80490
O2634       O  0.01527521  0.58410089  0.42539203    -0.80440
O2635       O  0.92893497  0.97729364  0.05041479    -0.80560
O2636       O  0.98305347  0.55219721  0.38779419    -0.80480
O2637       O  0.95230830  0.56055864  0.45849637    -0.80460
O2638       O  0.96226474  0.97645067  0.43465012    -0.80500
C2639       C  0.94957234  0.96788089  0.40257327     1.09230
C2640       C  0.92230788  0.55223427  0.97530932     1.09110
C2641       C  0.90351956  0.96283359  0.53367829     1.09250
C2642       C  0.99627202  0.58334188  0.39578111     1.09130
O2643       O  0.54178434  0.50983372  0.36392938    -0.80460
O2644       O  0.99241844  0.94326215  0.03148095    -0.80540
O2645       O  0.51663463  0.92343698  0.46179145    -0.80480
O2646       O  0.52069873  0.54378886  0.99215397    -0.80460
O2647       O  0.98271516  0.51848204  0.03450985    -0.80510
O2648       O  0.53603342  0.95288885  0.41036190    -0.80470
O2649       O  0.55533601  0.52067725  0.42334546    -0.80430
O2650       O  0.96398218  0.89947793  0.50757826    -0.80500
Co2651     Co  0.50681132  0.99996397  0.40380588     1.51530
Co2652     Co  0.95771961  0.98482713  0.00694664     1.51690
Co2653     Co  0.96464799  0.93975409  0.47431167     1.51570
Co2654     Co  0.00134464  0.53743697  0.44339091     1.51470
O2655       O  0.98153047  0.99018973  0.45632245    -1.42400
C2656       C  0.56657497  0.51542756  0.38824137     1.09150
C2657       C  0.48368557  0.90959070  0.03329152     1.09240
C2658       C  0.54140641  0.92998925  0.43717276     1.09180
C2659       C  0.51035498  0.53524507  0.02528331     1.09160
O2660       O  0.77347339  0.82571780  0.42770150    -0.80460
O2661       O  0.68988664  0.69729086  0.44068164    -0.80490
O2662       O  0.78992811  0.70969933  0.40957123    -0.80490
O2663       O  0.66632970  0.81394486  0.46545088    -0.80440
O2664       O  0.73539175  0.71717657  0.39786238    -0.80560
O2665       O  0.71213260  0.85014665  0.46935164    -0.80480
O2666       O  0.66160773  0.74771608  0.45383933    -0.80360
O2667       O  0.75961041  0.77319107  0.44472153    -0.80500
C2668       C  0.77617696  0.79338277  0.42032159     1.09230
C2669       C  0.66477459  0.72088333  0.43293973     1.09110
C2670       C  0.76486659  0.70453087  0.38612625     1.09250
C2671       C  0.67821013  0.84486281  0.46290038     1.09130
O2672       O  0.75088129  0.81383670  0.03430080    -0.80460
O2673       O  0.76608113  0.65969305  0.45272490    -0.80540
O2674       O  0.78910011  0.74638431  0.51933196    -0.80480
O2675       O  0.68987078  0.73039727  0.02908077    -0.80460
O2676       O  0.74008849  0.70358032  0.50807328    -0.80510
O2677       O  0.80999123  0.79601109  0.49682078    -0.80470
O2678       O  0.69331141  0.80550081  0.04124349    -0.80430
O2679       O  0.80947120  0.68723213  0.48036052    -0.80500
Co2680     Co  0.75920215  0.81780689  0.48025049     1.51530
Co2681     Co  0.74103063  0.71191557  0.45408809     1.51690
Co2682     Co  0.78210179  0.72980053  0.46587146     1.51570
Co2683     Co  0.68358821  0.77254400  0.49589508     1.51470
O2684       O  0.73454937  0.76693781  0.46582945    -1.42400
C2685       C  0.72218759  0.82009175  0.05208493     1.09150
C2686       C  0.79833170  0.65805806  0.46838656     1.09240
C2687       C  0.81159307  0.77099434  0.52261703     1.09180
C2688       C  0.70991747  0.70266612  0.02509910     1.09160
O2689       O  0.92519770  0.76316669  0.26023036    -0.80460
O2690       O  0.55001933  0.78047023  0.15979990    -0.80490
O2691       O  0.52849147  0.82873086  0.23740935    -0.80490
O2692       O  0.95347708  0.72804378  0.13467069    -0.80440
O2693       O  0.58005590  0.80055911  0.22609394    -0.80560
O2694       O  0.92621457  0.76016828  0.17668432    -0.80480
O2695       O  0.99001416  0.78541659  0.16242698    -0.80460
O2696       O  0.96183725  0.80124824  0.24003693    -0.80500
C2697       C  0.93624528  0.79450244  0.26145889     1.09230
C2698       C  0.51976570  0.79607638  0.14871490     1.09110
C2699       C  0.56224366  0.82964949  0.22973052     1.09250
C2700       C  0.92658440  0.74814379  0.14208556     1.09130
O2701       O  0.91374846  0.70256830  0.21952309    -0.80460
O2702       O  0.57796573  0.73241868  0.26304281    -0.80540
O2703       O  0.98604890  0.74848761  0.30437857    -0.80480
O2704       O  0.52230485  0.71902773  0.14796923    -0.80460
O2705       O  0.55042967  0.70690034  0.19961210    -0.80510
O2706       O  0.97229389  0.70296266  0.26880726    -0.80470
O2707       O  0.96549106  0.68288450  0.19462249    -0.80430
O2708       O  0.55244165  0.77670367  0.29451743    -0.80500
Co2709     Co  0.95426363  0.73261946  0.22394419     1.51530
Co2710     Co  0.56159042  0.75380703  0.21200799     1.51690
Co2711     Co  0.50564236  0.78824640  0.26730243     1.51570
Co2712     Co  0.98101839  0.73647288  0.17929017     1.51470
O2713       O  0.00726576  0.75333126  0.22618196    -1.42400
C2714       C  0.93213127  0.67634268  0.20646512     1.09150
C2715       C  0.57556884  0.75057897  0.29325021     1.09240
C2716       C  0.98027051  0.71481413  0.30106466     1.09180
C2717       C  0.54830744  0.70411886  0.16512676     1.09160
O2718       O  0.80994627  0.97200268  0.23737248    -0.80460
O2719       O  0.74218093  0.98488305  0.13039585    -0.80490
O2720       O  0.73270547  0.90680540  0.21685195    -0.80490
O2721       O  0.80815783  0.56279281  0.19091311    -0.80440
O2722       O  0.76688787  0.93681254  0.18082220    -0.80560
O2723       O  0.82235218  0.54199349  0.24852880    -0.80480
O2724       O  0.78908910  0.50157211  0.16479964    -0.80460
O2725       O  0.78291186  0.92966610  0.26991550    -0.80500
C2726       C  0.80943930  0.94023414  0.24933060     1.09230
C2727       C  0.77650946  0.49150342  0.13261312     1.09110
C2728       C  0.75008234  0.90847289  0.18593427     1.09250
C2729       C  0.83044685  0.56077819  0.21748324     1.09130
O2730       O  0.76071218  0.54516323  0.30068258    -0.80460
O2731       O  0.68595502  0.94892276  0.19002854    -0.80540
O2732       O  0.72217480  0.96326344  0.31185432    -0.80480
O2733       O  0.73706197  0.55944849  0.18258585    -0.80460
O2734       O  0.69765753  0.51815112  0.18782128    -0.80510
O2735       O  0.73990600  0.01866044  0.30705425    -0.80470
O2736       O  0.76147764  0.57575448  0.24850499    -0.80430
O2737       O  0.67968629  0.95438798  0.25157460    -0.80500
Co2738     Co  0.78259055  0.00396726  0.27001872     1.51530
Co2739     Co  0.73297357  0.97987500  0.18486173     1.51690
Co2740     Co  0.73103283  0.94284104  0.26088120     1.51570
Co2741     Co  0.77313979  0.53248250  0.21080919     1.51470
O2742       O  0.74098227  0.99361056  0.23650776    -1.42400
C2743       C  0.76054158  0.57640653  0.28474812     1.09150
C2744       C  0.66758416  0.94317801  0.22127947     1.09240
C2745       C  0.71569470  0.99596318  0.31830437     1.09180
C2746       C  0.70475223  0.55057851  0.18714125     1.09160
C2747       C  0.87223180  0.60172260  0.24535145    -0.06110
C2748       C  0.86314561  0.58367771  0.21359849    -0.00180
C2749       C  0.88214985  0.59176145  0.17870618    -0.08750
C2750       C  0.90717798  0.62037252  0.17694538    -0.06130
C2751       C  0.91442973  0.64017492  0.20914298    -0.00190
C2752       C  0.89756296  0.62897265  0.24377984    -0.08660
C2753       C  0.90883118  0.64353837  0.28018548     0.61720
H2754       H  0.85790622  0.59515408  0.27158288     0.12410
H2755       H  0.91958742  0.62848014  0.15016719     0.12420
C2756       C  0.87630602  0.57031243  0.14356995     0.61950
F2757       F  0.89301595  0.62554335  0.31029230    -0.23220
F2758       F  0.89818641  0.67923037  0.28271121    -0.20540
F2759       F  0.94635824  0.63832153  0.28177187    -0.20220
F2760       F  0.84266157  0.57952237  0.12811392    -0.20270
F2761       F  0.87780787  0.53406902  0.15286366    -0.20600
F2762       F  0.90301856  0.57659887  0.11621705    -0.23270
C2763       C  0.61450729  0.86125259  0.25206180    -0.06110
C2764       C  0.58350542  0.86331103  0.22937984    -0.00180
C2765       C  0.57749965  0.89495715  0.20641828    -0.08750
C2766       C  0.60557489  0.92029633  0.20348706    -0.06130
C2767       C  0.63721050  0.91719897  0.22572890    -0.00190
C2768       C  0.63902628  0.88903721  0.25405737    -0.08660
C2769       C  0.66639044  0.88685884  0.28658813     0.61720
H2770       H  0.61988383  0.83687904  0.26833964     0.12410
H2771       H  0.60201352  0.94311148  0.18438438     0.12420
C2772       C  0.54269125  0.90393046  0.18492177     0.61950
F2773       F  0.66262771  0.85637951  0.30930858    -0.23220
F2774       F  0.66104615  0.91623614  0.30927317    -0.20540
F2775       F  0.70183982  0.88557441  0.27361750    -0.20220
F2776       F  0.52300632  0.93058878  0.20357617    -0.20270
F2777       F  0.52086695  0.87496709  0.18172052    -0.20600
F2778       F  0.55112341  0.91657389  0.14877809    -0.23270
C2779       C  0.71313063  0.83343650  0.12202710    -0.06110
C2780       C  0.72537800  0.84445392  0.08573790    -0.00180
C2781       C  0.74847968  0.87483551  0.08366588    -0.08750
C2782       C  0.75523761  0.89406824  0.11673029    -0.06130
C2783       C  0.74336418  0.88327342  0.15311612    -0.00190
C2784       C  0.72369425  0.85074876  0.15565188    -0.08660
C2785       C  0.71577942  0.83256863  0.19341329     0.61720
H2786       H  0.69764747  0.80928165  0.12417685     0.12410
H2787       H  0.77172914  0.91729103  0.11444009     0.12420
C2788       C  0.76969299  0.88548420  0.04774940     0.61950
F2789       F  0.70679027  0.79717566  0.18949819    -0.23220
F2790       F  0.68671714  0.85020405  0.21042609    -0.20540
F2791       F  0.74610297  0.83295540  0.21631369    -0.20220
F2792       F  0.74737183  0.88722027  0.01677378    -0.20270
F2793       F  0.79838488  0.86111691  0.04157291    -0.20600
F2794       F  0.78456670  0.91863699  0.05033120    -0.23270
C2795       C  0.77851573  0.64233742  0.29675534    -0.06110
C2796       C  0.75976782  0.61107583  0.30888451    -0.00180
C2797       C  0.74349895  0.61272809  0.34606516    -0.08750
C2798       C  0.74643527  0.64362585  0.36835862    -0.06130
C2799       C  0.76562281  0.67401573  0.35721139    -0.00190
C2800       C  0.78170934  0.67343621  0.32011453    -0.08660
C2801       C  0.80140768  0.70585505  0.30512481     0.61720
H2802       H  0.79146546  0.64205228  0.26898221     0.12410
H2803       H  0.73323266  0.64410730  0.39586618     0.12420
C2804       C  0.72066979  0.58291522  0.36229572     0.61950
F2805       F  0.81449763  0.70123823  0.26851623    -0.23220
F2806       F  0.83068970  0.71206834  0.32796674    -0.20540
F2807       F  0.77761941  0.73549405  0.30512945    -0.20220
F2808       F  0.74232988  0.55254007  0.36937884    -0.20270
F2809       F  0.69382529  0.57685803  0.33664745    -0.20600
F2810       F  0.70356921  0.59119047  0.39630815    -0.23270
C2811       C  0.62094990  0.75604635  0.39168824    -0.06110
C2812       C  0.64054068  0.72299727  0.39706627    -0.00180
C2813       C  0.63768558  0.69840592  0.36669585    -0.08750
C2814       C  0.61853619  0.70903712  0.33275978    -0.06130
C2815       C  0.59937610  0.74232632  0.32815401    -0.00190
C2816       C  0.60114822  0.76629513  0.35893078    -0.08660
C2817       C  0.58290744  0.80354486  0.35815129     0.61720
H2818       H  0.62108607  0.77509423  0.41404548     0.12410
H2819       H  0.61679751  0.68995619  0.31032102     0.12420
C2820       C  0.65075117  0.65980695  0.36844304     0.61950
F2821       F  0.59158092  0.82314284  0.38908177    -0.23220
F2822       F  0.54546867  0.80172524  0.35840755    -0.20540
F2823       F  0.59408181  0.82201007  0.32618656    -0.20220
F2824       F  0.66499005  0.64958687  0.40299457    -0.20270
F2825       F  0.67653894  0.65454767  0.34001958    -0.20600
F2826       F  0.62171747  0.63812710  0.36201750    -0.23270
C2827       C  0.86153397  0.76399531  0.12113983    -0.06110
C2828       C  0.89812781  0.75642972  0.11089179    -0.00180
C2829       C  0.90581376  0.75351058  0.07079835    -0.08750
C2830       C  0.87754347  0.76104959  0.04376069    -0.06130
C2831       C  0.84074662  0.76818041  0.05411665    -0.00190
C2832       C  0.83283473  0.76798325  0.09413192    -0.08660
C2833       C  0.79505591  0.77664482  0.10948786     0.61720
H2834       H  0.85524134  0.76591817  0.15110242     0.12410
H2835       H  0.88369800  0.75951984  0.01376319     0.12420
C2836       C  0.94330419  0.74115915  0.05564073     0.61950
F2837       F  0.79130449  0.76657768  0.14735899    -0.23220
F2838       F  0.76858903  0.75966382  0.08992647    -0.20540
F2839       F  0.78996865  0.81312273  0.10643480    -0.20220
F2840       F  0.95033355  0.70576222  0.06645518    -0.20270
F2841       F  0.97027561  0.76201789  0.06926245    -0.20600
F2842       F  0.94541674  0.74333973  0.01645541    -0.23270
C2843       C  0.86030075  0.63633583  0.48794178    -0.06110
C2844       C  0.82649319  0.62680048  0.47271733    -0.00180
C2845       C  0.82401780  0.59052384  0.46215998    -0.08750
C2846       C  0.85516709  0.56651836  0.46638597    -0.06130
C2847       C  0.88946923  0.57810421  0.97676863    -0.00190
C2848       C  0.89115502  0.61394439  0.98899962    -0.08660
C2849       C  0.92526886  0.63273614  0.00036756     0.61720
H2850       H  0.86221488  0.66206613  0.00098279     0.12410
H2851       H  0.85305977  0.53875245  0.45913242     0.12420
C2852       C  0.79056168  0.57786136  0.44312417     0.61950
F2853       F  0.92822807  0.66433172  0.97922303    -0.23220
F2854       F  0.95701014  0.61299939  0.99446915    -0.20540
F2855       F  0.92216042  0.64110343  0.03820937    -0.20220
F2856       F  0.78878087  0.59482977  0.40827144    -0.20270
F2857       F  0.75928969  0.58603414  0.46411556    -0.20600
F2858       F  0.79233082  0.54129104  0.43757852    -0.23270
C2859       C  0.59380679  0.90751751  0.47768684    -0.06110
C2860       C  0.57879869  0.91098749  0.44130459    -0.00180
C2861       C  0.60046246  0.89777050  0.41060641    -0.08750
C2862       C  0.63450681  0.87862675  0.41786222    -0.06130
C2863       C  0.64907269  0.87423394  0.45467750    -0.00190
C2864       C  0.62858771  0.89058878  0.48465399    -0.08660
C2865       C  0.64274189  0.88953973  0.02438557     0.61720
H2866       H  0.57795059  0.91859923  0.50103401     0.12410
H2867       H  0.64958729  0.86615521  0.39478915     0.12420
C2868       C  0.58679819  0.90282394  0.37050877     0.61950
F2869       F  0.62324874  0.91328508  0.04714164    -0.23220
F2870       F  0.67874287  0.89915996  0.02432342    -0.20540
F2871       F  0.63992004  0.85532127  0.03952890    -0.20220
F2872       F  0.58668036  0.93862022  0.35976802    -0.20270
F2873       F  0.55181485  0.89025178  0.36792133    -0.20600
F2874       F  0.60882343  0.88462054  0.34529471    -0.23270
C2875       C  0.67361257  0.99615525  0.37590873    -0.06110
C2876       C  0.67931680  0.00646509  0.33791794    -0.00180
C2877       C  0.64811699  0.52134343  0.31821388    -0.08750
C2878       C  0.61347543  0.52453766  0.33677532    -0.06130
C2879       C  0.60708596  0.51391406  0.37480551    -0.00190
C2880       C  0.63897181  0.99987875  0.39506756    -0.08660
C2881       C  0.63988368  0.98656478  0.43560085     0.61720
H2882       H  0.69680457  0.98412062  0.39095279     0.12410
H2883       H  0.59051129  0.53544949  0.32056047     0.12420
C2884       C  0.64876551  0.53394542  0.27739327     0.61950
F2885       F  0.65234555  0.95135359  0.43666596    -0.23220
F2886       F  0.60656248  0.98880303  0.45403066    -0.20540
F2887       F  0.66487822  0.00603176  0.45452030    -0.20220
F2888       F  0.62694638  0.51213763  0.25709992    -0.20270
F2889       F  0.68339443  0.53318690  0.26193184    -0.20600
F2890       F  0.63493406  0.56889265  0.27451252    -0.23270
C2891       C  0.83587707  0.97951626  0.04067616    -0.06110
C2892       C  0.86767160  0.96171814  0.05548997    -0.00180
C2893       C  0.86694491  0.95216502  0.09521241    -0.08750
C2894       C  0.83555108  0.96044967  0.11735063    -0.06130
C2895       C  0.80484635  0.97970499  0.10337766    -0.00190
C2896       C  0.80467738  0.98896280  0.06408627    -0.08660
C2897       C  0.77214476  0.50944375  0.04723199     0.61720
H2898       H  0.83648373  0.98804081  0.01113537     0.12410
H2899       H  0.83575795  0.95284064  0.14723807     0.12420
C2900       C  0.89828117  0.93450393  0.11791120     0.61950
F2901       F  0.77726685  0.51716359  0.00907851    -0.23220
F2902       F  0.76646033  0.54132665  0.06577658    -0.20540
F2903       F  0.74131442  0.48926792  0.05151900    -0.20220
F2904       F  0.93017264  0.92806692  0.09777697    -0.20270
F2905       F  0.88709441  0.90206271  0.13304077    -0.20600
F2906       F  0.90655164  0.95630354  0.14743168    -0.23270
C2907       C  0.53061198  0.87830596  0.07774678    -0.06110
C2908       C  0.49443586  0.88219482  0.06390092    -0.00180
C2909       C  0.96870534  0.85657834  0.07679567    -0.08750
C2910       C  0.97928677  0.83073506  0.10428911    -0.06130
C2911       C  0.51518901  0.82567663  0.11807915    -0.00190
C2912       C  0.54180750  0.84955239  0.10345297    -0.08660
C2913       C  0.58185643  0.84402626  0.11312016     0.61720
H2914       H  0.55059649  0.89666064  0.06662731     0.12410
H2915       H  0.95871806  0.81251754  0.11392104     0.12420
C2916       C  0.93120932  0.85201122  0.05894435     0.61950
F2917       F  0.60163405  0.87355554  0.10281289    -0.23220
F2918       F  0.59629887  0.81467571  0.09435327    -0.20540
F2919       F  0.58632063  0.83832019  0.15138652    -0.20220
F2920       F  0.93643783  0.83360409  0.02577162    -0.20270
F2921       F  0.91269830  0.88403844  0.05110431    -0.20600
F2922       F  0.90813082  0.83265058  0.08243434    -0.23270
C2923       C  0.95114936  0.66927767  0.34741995    -0.06110
C2924       C  0.98200355  0.68791830  0.33499172    -0.00180
C2925       C  0.01481632  0.67713117  0.35333148    -0.08750
C2926       C  0.01948958  0.64094288  0.36668418    -0.06130
C2927       C  0.98955981  0.61854621  0.37300818    -0.00190
C2928       C  0.95433227  0.63494309  0.36622748    -0.08660
C2929       C  0.92077674  0.61812496  0.38265903     0.61720
H2930       H  0.92455475  0.68161870  0.34213798     0.12410
H2931       H  0.54569261  0.63216417  0.37823893     0.12420
C2932       C  0.52942710  0.70378787  0.37985694     0.61950
F2933       F  0.88936648  0.63963913  0.37840790    -0.23220
F2934       F  0.92630402  0.61364311  0.42036252    -0.20540
F2935       F  0.91581231  0.58517224  0.36694418    -0.20220
F2936       F  0.50729836  0.70506449  0.41199811    -0.20270
F2937       F  0.52906337  0.73739234  0.36331232    -0.20600
F2938       F  0.56440188  0.69396946  0.39089979    -0.23270
C2939       C  0.64305477  0.56080699  0.17686372    -0.06110
C2940       C  0.67470134  0.57703287  0.18706466    -0.00180
C2941       C  0.68401982  0.60671642  0.16590997    -0.08750
C2942       C  0.67901978  0.60444635  0.12733246    -0.06130
C2943       C  0.65432644  0.57897126  0.11246986    -0.00190
C2944       C  0.64181667  0.55202316  0.13854576    -0.08660
C2945       C  0.64028426  0.51193628  0.13023255     0.61720
H2946       H  0.63163670  0.54273858  0.19776607     0.12410
H2947       H  0.68628642  0.62825573  0.11161609     0.12420
C2948       C  0.70284854  0.63757040  0.18287465     0.61950
F2949       F  0.63640202  0.99145150  0.16224764    -0.23220
F2950       F  0.67267542  0.50000152  0.11361558    -0.20540
F2951       F  0.61174722  0.50304708  0.10831923    -0.20220
F2952       F  0.73770138  0.64013645  0.16751192    -0.20270
F2953       F  0.70535975  0.63295384  0.22180927    -0.20600
F2954       F  0.68298232  0.66904191  0.17505824    -0.23270
C2955       C  0.61964557  0.66235888  0.10470410    -0.06110
C2956       C  0.61054032  0.62630837  0.11087288    -0.00180
C2957       C  0.58473033  0.61757882  0.14197416    -0.08750
C2958       C  0.57000815  0.64563875  0.16168199    -0.06130
C2959       C  0.57276845  0.67998458  0.14774524    -0.00190
C2960       C  0.59917147  0.68980770  0.12100442    -0.08660
C2961       C  0.60607826  0.72862461  0.11088095     0.61720
H2962       H  0.64234262  0.66931069  0.08689221     0.12410
H2963       H  0.55137350  0.64055115  0.18549692     0.12420
C2964       C  0.56521153  0.58291957  0.15501125     0.61950
F2965       F  0.63449736  0.73206748  0.08488374    -0.23220
F2966       F  0.61508314  0.74629926  0.14316651    -0.20540
F2967       F  0.57492279  0.74453629  0.09521635    -0.20220
F2968       F  0.57299709  0.57478759  0.19252279    -0.20270
F2969       F  0.57184861  0.55301118  0.13422270    -0.20600
F2970       F  0.52781037  0.58889768  0.15433768    -0.23270
C2971       C  0.65679339  0.66835157  0.01613118    -0.06110
C2972       C  0.69270078  0.66871800  0.02951185    -0.00180
C2973       C  0.71034470  0.63639464  0.04206870    -0.08750
C2974       C  0.68843043  0.60652738  0.04619463    -0.06130
C2975       C  0.64981262  0.61210225  0.04820963    -0.00190
C2976       C  0.63533086  0.63902920  0.02282529    -0.08660
C2977       C  0.59947010  0.63902658  0.00164948     0.61720
H2978       H  0.64500101  0.69088374  0.50082896     0.12410
H2979       H  0.70131370  0.58238330  0.05806227     0.12420
C2980       C  0.74956685  0.63262347  0.05625874     0.61950
F2981       F  0.60176303  0.65490919  0.46745492    -0.23220
F2982       F  0.57324556  0.66012886  0.01990036    -0.20540
F2983       F  0.58621460  0.60530874  0.49799532    -0.20220
F2984       F  0.76610921  0.66490495  0.06014616    -0.20270
F2985       F  0.77021890  0.61189097  0.03171456    -0.20600
F2986       F  0.75027818  0.61551423  0.09144279    -0.23270
C2987       C  0.56780097  0.52621316  0.04932642    -0.06110
C2988       C  0.53363437  0.54398302  0.05380995    -0.00180
C2989       C  0.52979076  0.57903282  0.06560362    -0.08750
C2990       C  0.56127262  0.59649051  0.06942188    -0.06130
C2991       C  0.59640609  0.57863761  0.06860768    -0.00190
C2992       C  0.59970255  0.54502314  0.05188578    -0.08660
C2993       C  0.63409108  0.53118450  0.03169561     0.61720
H2994       H  0.56891492  0.49999800  0.03667923     0.12410
H2995       H  0.55762745  0.62481992  0.07435713     0.12420
C2996       C  0.99399613  0.60098715  0.06902533     0.61950
F2997       F  0.63106414  0.99568120  0.02203923    -0.23220
F2998       F  0.66473034  0.53279732  0.05320646    -0.20540
F2999       F  0.63901980  0.55196817  0.99923205    -0.20220
F3000       F  0.98906484  0.61369106  0.10504871    -0.20270
F3001       F  0.96371628  0.58160187  0.06116371    -0.20600
F3002       F  0.99585225  0.63061303  0.04486993    -0.23270
C3003       C  0.85808503  0.93384197  0.37649117    -0.06110
C3004       C  0.86580068  0.89735256  0.38589480    -0.00180
C3005       C  0.88573404  0.89259106  0.41951483    -0.08750
C3006       C  0.91649866  0.91334214  0.42205387    -0.06130
C3007       C  0.91767320  0.94568951  0.40076354    -0.00190
C3008       C  0.88512948  0.95876311  0.38329654    -0.08660
C3009       C  0.87990589  0.99779989  0.37128601     0.61720
H3010       H  0.83659430  0.94189990  0.35727125     0.12410
H3011       H  0.93760059  0.90520587  0.44163492     0.12420
C3012       C  0.86903060  0.87622652  0.45518196     0.61950
F3013       F  0.84447051  0.50545946  0.35855961    -0.23220
F3014       F  0.90424322  0.50634021  0.34248965    -0.20540
F3015       F  0.88568459  0.51889828  0.40163894    -0.20220
F3016       F  0.83462804  0.86385551  0.44861887    -0.20270
F3017       F  0.86511696  0.90184676  0.48252602    -0.20600
F3018       F  0.89099416  0.84839957  0.46927084    -0.23270
C3019       C  0.85552193  0.81304658  0.39434172    -0.06110
C3020       C  0.84381516  0.83933716  0.36765141    -0.00180
C3021       C  0.80739918  0.83622725  0.35345563    -0.08750
C3022       C  0.79105551  0.80274753  0.35800528    -0.06130
C3023       C  0.80078085  0.78159967  0.38976585    -0.00190
C3024       C  0.83757871  0.78150217  0.40035046    -0.08660
C3025       C  0.85749451  0.75012400  0.42006372     0.61720
H3026       H  0.87885853  0.81704187  0.41121461     0.12410
H3027       H  0.76354261  0.80029466  0.34745905     0.12420
C3028       C  0.78160364  0.86711190  0.34101429     0.61950
F3029       F  0.89343891  0.75732283  0.42753344    -0.23220
F3030       F  0.85807427  0.72052296  0.39747428    -0.20540
F3031       F  0.84088237  0.74230099  0.45405157    -0.20220
F3032       F  0.76888600  0.86195546  0.30508171    -0.20270
F3033       F  0.79718135  0.89977222  0.34162855    -0.20600
F3034       F  0.75165656  0.86859881  0.36546538    -0.23270
C3035       C  0.87884079  0.91494806  0.30209651    -0.06110
C3036       C  0.86442506  0.88131340  0.31312590    -0.00180
C3037       C  0.84898882  0.86168446  0.28243380    -0.08750
C3038       C  0.83737473  0.88174311  0.25038141    -0.06130
C3039       C  0.84265503  0.91840589  0.24778079    -0.00190
C3040       C  0.87102963  0.93225344  0.26796511    -0.08660
C3041       C  0.88370505  0.97017657  0.26131218     0.61720
H3042       H  0.89677152  0.92859787  0.32001823     0.12410
H3043       H  0.81967449  0.86999838  0.23008818     0.12420
C3044       C  0.84438373  0.82137511  0.27832405     0.61950
F3045       F  0.91983713  0.97307376  0.27126496    -0.23220
F3046       F  0.86271256  0.99314791  0.28337938    -0.20540
F3047       F  0.88057025  0.48052713  0.22339676    -0.20220
F3048       F  0.80793920  0.81405668  0.27407539    -0.20270
F3049       F  0.85775846  0.80021721  0.30762400    -0.20600
F3050       F  0.86232991  0.81069475  0.24555197    -0.23270
C3051       C  0.92681417  0.79827486  0.33001818    -0.06110
C3052       C  0.93208135  0.81615040  0.29494692    -0.00180
C3053       C  0.94069906  0.85333980  0.29493635    -0.08750
C3054       C  0.93790345  0.87025193  0.33018930    -0.06130
C3055       C  0.91379382  0.85472732  0.35663982    -0.00190
C3056       C  0.92459015  0.81842240  0.36249655    -0.08660
C3057       C  0.95245380  0.80873767  0.39264341     0.61720
H3058       H  0.92758020  0.76932668  0.33255604     0.12410
H3059       H  0.94501259  0.89782146  0.33303727     0.12420
C3060       C  0.94576270  0.87636918  0.25905322     0.61950
F3061       F  0.98498128  0.82434310  0.38297121    -0.23220
F3062       F  0.95847368  0.77198384  0.39595295    -0.20540
F3063       F  0.94133642  0.82134688  0.42740468    -0.20220
F3064       F  0.91629953  0.87339697  0.23556354    -0.20270
F3065       F  0.97630379  0.86678049  0.23916064    -0.20600
F3066       F  0.94961003  0.91186016  0.26719630    -0.23270
C3067       C  0.87146276  0.86781725  0.85516892    -0.02810
C3068       C  0.62785136  0.59811634  0.58453392    -0.02810
O3069       O  0.96810822  0.97786337  0.87396911    -0.80460
O3070       O  0.91977530  0.52171587  0.49121651    -0.80490
O3071       O  0.91045888  0.95320261  0.99811026    -0.80490
O3072       O  0.01488284  0.58439587  0.92538204    -0.80440
O3073       O  0.92870135  0.97754249  0.55053929    -0.80560
O3074       O  0.98295449  0.55226603  0.88773930    -0.80480
O3075       O  0.95175621  0.56070947  0.95800769    -0.80460
O3076       O  0.96229694  0.97634592  0.93443916    -0.80500
C3077       C  0.94958939  0.96776552  0.90236357     1.09230
C3078       C  0.92268417  0.55210803  0.47545753     1.09110
C3079       C  0.90367672  0.96270730  0.03353896     1.09250
C3080       C  0.99599968  0.58348728  0.89572106     1.09130
O3081       O  0.54187135  0.51004796  0.86420019    -0.80460
O3082       O  0.99230051  0.94359313  0.53181889    -0.80540
O3083       O  0.51669600  0.92338443  0.96155981    -0.80480
O3084       O  0.52131538  0.54303516  0.49204366    -0.80460
O3085       O  0.98277014  0.51827435  0.53418142    -0.80510
O3086       O  0.53598828  0.95280909  0.91006585    -0.80470
O3087       O  0.55527173  0.52110529  0.92361823    -0.80430
O3088       O  0.96398587  0.89923705  0.00727318    -0.80500
Co3089     Co  0.50677926  0.99988465  0.90356877     1.51530
Co3090     Co  0.95757750  0.98504041  0.50713471     1.51690
Co3091     Co  0.96469383  0.93963797  0.97409378     1.51570
Co3092     Co  0.00106688  0.53773611  0.94340392     1.51470
O3093       O  0.98150130  0.99010100  0.95606636    -1.42400
C3094       C  0.56660083  0.51575984  0.88853415     1.09150
C3095       C  0.48361871  0.90989558  0.53360728     1.09240
C3096       C  0.54144076  0.92998027  0.93692517     1.09180
C3097       C  0.51073908  0.53459115  0.52511691     1.09160
O3098       O  0.77355614  0.82580237  0.92777227    -0.80460
O3099       O  0.68965823  0.69734893  0.94093479    -0.80490
O3100       O  0.78980788  0.70973572  0.90961174    -0.80490
O3101       O  0.66650708  0.81409871  0.96479350    -0.80440
O3102       O  0.73522505  0.71706014  0.89800237    -0.80560
O3103       O  0.71218392  0.85030352  0.96947829    -0.80480
O3104       O  0.66154928  0.74788152  0.95382910    -0.80360
O3105       O  0.75957561  0.77328478  0.94477749    -0.80500
C3106       C  0.77617990  0.79345655  0.92038269     1.09230
C3107       C  0.66460929  0.72095983  0.93307118     1.09110
C3108       C  0.76472618  0.70449756  0.88622373     1.09250
C3109       C  0.67832484  0.84505054  0.96265719     1.09130
O3110       O  0.75090716  0.81394701  0.53424454    -0.80460
O3111       O  0.76568776  0.65972558  0.95304226    -0.80540
O3112       O  0.78914594  0.74640899  0.01935354    -0.80480
O3113       O  0.68989368  0.72974182  0.52889703    -0.80460
O3114       O  0.73992147  0.70391457  0.00826566    -0.80510
O3115       O  0.81001687  0.79605466  0.99687050    -0.80470
O3116       O  0.69349065  0.80485045  0.54167552    -0.80430
O3117       O  0.80938134  0.68722011  0.98025297    -0.80500
Co3118     Co  0.75924492  0.81787376  0.98032066     1.51530
Co3119     Co  0.74082906  0.71199607  0.95424298     1.51690
Co3120     Co  0.78204025  0.72984619  0.96587092     1.51570
Co3121     Co  0.68353328  0.77291934  0.99569134     1.51470
O3122       O  0.73453150  0.76706677  0.96580074    -1.42400
C3123       C  0.72227018  0.81980158  0.55228025     1.09150
C3124       C  0.79797040  0.65801261  0.96861965     1.09240
C3125       C  0.81161482  0.77103933  0.02266299     1.09180
C3126       C  0.71001318  0.70209439  0.52472473     1.09160
O3127       O  0.92509442  0.76300202  0.76005112    -0.80460
O3128       O  0.54992847  0.78075454  0.65997131    -0.80490
O3129       O  0.52837461  0.82886007  0.73752290    -0.80490
O3130       O  0.95357473  0.72796622  0.63451736    -0.80440
O3131       O  0.57997813  0.80072904  0.72622851    -0.80560
O3132       O  0.92616785  0.75993235  0.67659407    -0.80480
O3133       O  0.98989218  0.78541580  0.66234134    -0.80460
O3134       O  0.96170230  0.80115926  0.73990835    -0.80500
C3135       C  0.93607779  0.79436664  0.76127357     1.09230
C3136       C  0.51965159  0.79625687  0.64881686     1.09110
C3137       C  0.56214082  0.82980168  0.72988575     1.09250
C3138       C  0.92661749  0.74798584  0.64196405     1.09130
O3139       O  0.91393378  0.70215634  0.71955381    -0.80460
O3140       O  0.57783708  0.73259057  0.76314160    -0.80540
O3141       O  0.98586294  0.74851925  0.80432124    -0.80480
O3142       O  0.52249587  0.71917535  0.64788385    -0.80460
O3143       O  0.54997424  0.70727838  0.69985229    -0.80510
O3144       O  0.97245918  0.70294446  0.76867456    -0.80470
O3145       O  0.96576074  0.68279804  0.69451377    -0.80430
O3146       O  0.55224719  0.77681670  0.79464498    -0.80500
Co3147     Co  0.95428739  0.73248491  0.72385867     1.51530
Co3148     Co  0.56147541  0.75403318  0.71213973     1.51690
Co3149     Co  0.50547630  0.78831256  0.76731682     1.51570
Co3150     Co  0.98106081  0.73645687  0.67916985     1.51470
O3151       O  0.00715678  0.75347542  0.72613539    -1.42400
C3152       C  0.93247119  0.67604541  0.70643194     1.09150
C3153       C  0.57542409  0.75072667  0.79335981     1.09240
C3154       C  0.98024693  0.71482586  0.80095420     1.09180
C3155       C  0.54846561  0.70455223  0.66533125     1.09160
O3156       O  0.80995963  0.97194353  0.73745497    -0.80460
O3157       O  0.74201535  0.98433027  0.63063037    -0.80490
O3158       O  0.73292931  0.90656075  0.71715757    -0.80490
O3159       O  0.80850304  0.56269674  0.69109790    -0.80440
O3160       O  0.76712661  0.93654048  0.68110755    -0.80560
O3161       O  0.82254881  0.54191322  0.74874028    -0.80480
O3162       O  0.78924400  0.50157710  0.66482695    -0.80460
O3163       O  0.78306553  0.92962920  0.77016150    -0.80500
C3164       C  0.80949906  0.94018236  0.74943903     1.09230
C3165       C  0.77664820  0.49162416  0.63259701     1.09110
C3166       C  0.75031644  0.90819236  0.68623126     1.09250
C3167       C  0.83076254  0.56064234  0.71768817     1.09130
O3168       O  0.76067452  0.54517999  0.80070151    -0.80460
O3169       O  0.68618096  0.94844575  0.69042766    -0.80540
O3170       O  0.72231062  0.96315607  0.81209153    -0.80480
O3171       O  0.73748700  0.55962324  0.68252621    -0.80460
O3172       O  0.69784582  0.51854653  0.68777036    -0.80510
O3173       O  0.73993663  0.01856140  0.80716974    -0.80470
O3174       O  0.76170912  0.57577022  0.74853983    -0.80430
O3175       O  0.67982095  0.95416619  0.75192029    -0.80500
Co3176     Co  0.78262309  0.00388145  0.77013665     1.51530
Co3177     Co  0.73306361  0.97949045  0.68510915     1.51690
Co3178     Co  0.73117171  0.94266913  0.76116600     1.51570
Co3179     Co  0.77334242  0.53248923  0.71085520     1.51470
O3180       O  0.74098960  0.99342043  0.73671231    -1.42400
C3181       C  0.76061688  0.57641959  0.78477832     1.09150
C3182       C  0.66772557  0.94292701  0.72164848     1.09240
C3183       C  0.71573191  0.99586337  0.81840800     1.09180
C3184       C  0.70514612  0.55093807  0.68721263     1.09160
C3185       C  0.87349652  0.60079190  0.74557276    -0.06110
C3186       C  0.86365174  0.58331950  0.71369671    -0.00180
C3187       C  0.88218780  0.59173527  0.67861026    -0.08750
C3188       C  0.90721707  0.62033337  0.67677810    -0.06130
C3189       C  0.91505245  0.63972820  0.70908667    -0.00190
C3190       C  0.89888431  0.62801423  0.74389541    -0.08660
C3191       C  0.91047438  0.64246888  0.78022719     0.61720
H3192       H  0.85961492  0.59393046  0.77197575     0.12410
H3193       H  0.91914038  0.62877631  0.64987555     0.12420
C3194       C  0.87588680  0.57064214  0.64332206     0.61950
F3195       F  0.89537835  0.62401151  0.81045049    -0.23220
F3196       F  0.89924347  0.67799069  0.78298180    -0.20540
F3197       F  0.94809478  0.63788048  0.78135433    -0.20220
F3198       F  0.84220886  0.58027175  0.62817834    -0.20270
F3199       F  0.87713546  0.53432614  0.65227256    -0.20600
F3200       F  0.90248275  0.57692153  0.61584230    -0.23270
C3201       C  0.61441606  0.86123916  0.75232723    -0.06110
C3202       C  0.58341519  0.86344293  0.72964516    -0.00180
C3203       C  0.57747641  0.89516442  0.70676784    -0.08750
C3204       C  0.60559536  0.92046681  0.70395584    -0.06130
C3205       C  0.63726245  0.91712517  0.72611144    -0.00190
C3206       C  0.63904263  0.88890627  0.75435360    -0.08660
C3207       C  0.66651354  0.88653569  0.78678819     0.61720
H3208       H  0.61974999  0.83681165  0.76852599     0.12410
H3209       H  0.60210056  0.94345311  0.68502940     0.12420
C3210       C  0.54273059  0.90422201  0.68520714     0.61950
F3211       F  0.66268142  0.85603296  0.80945791    -0.23220
F3212       F  0.66140663  0.91588490  0.80955356    -0.20540
F3213       F  0.70191284  0.88511983  0.77368875    -0.20220
F3214       F  0.52303899  0.93087597  0.70386107    -0.20270
F3215       F  0.52088260  0.87529112  0.68190375    -0.20600
F3216       F  0.55126479  0.91690196  0.64910166    -0.23270
C3217       C  0.71323277  0.83315101  0.62229447    -0.06110
C3218       C  0.72549398  0.84413248  0.58599710    -0.00180
C3219       C  0.74857933  0.87454122  0.58393080    -0.08750
C3220       C  0.75542271  0.89373550  0.61700977    -0.06130
C3221       C  0.74354170  0.88297626  0.65340296    -0.00190
C3222       C  0.72378987  0.85048804  0.65592280    -0.08660
C3223       C  0.71569724  0.83239638  0.69368302     0.61720
H3224       H  0.69771055  0.80902208  0.62445080     0.12410
H3225       H  0.77197710  0.91691523  0.61471766     0.12420
C3226       C  0.76972477  0.88525742  0.54799452     0.61950
F3227       F  0.70670051  0.79700098  0.68980424    -0.23220
F3228       F  0.68656409  0.85009909  0.71049526    -0.20540
F3229       F  0.74591075  0.83280540  0.71673347    -0.20220
F3230       F  0.74741620  0.88676951  0.51700274    -0.20270
F3231       F  0.79858554  0.86105622  0.54190160    -0.20600
F3232       F  0.78434177  0.91853278  0.55049751    -0.23270
C3233       C  0.77862606  0.64232820  0.79686059    -0.06110
C3234       C  0.75980455  0.61108866  0.80891672    -0.00180
C3235       C  0.74342350  0.61275526  0.84604329    -0.08750
C3236       C  0.74634401  0.64362973  0.86836842    -0.06130
C3237       C  0.76554785  0.67401636  0.85727568    -0.00190
C3238       C  0.78176813  0.67342293  0.82023760    -0.08660
C3239       C  0.80157866  0.70580576  0.80533316     0.61720
H3240       H  0.79167903  0.64202440  0.76913796     0.12410
H3241       H  0.73315832  0.64407370  0.89588479     0.12420
C3242       C  0.72052528  0.58296816  0.86219420     0.61950
F3243       F  0.81477192  0.70118073  0.76876356    -0.23220
F3244       F  0.83080834  0.71194252  0.82827175    -0.20540
F3245       F  0.77785318  0.73549194  0.80527917    -0.20220
F3246       F  0.74213817  0.55257521  0.86933674    -0.20270
F3247       F  0.69375526  0.57696136  0.83645010    -0.20600
F3248       F  0.70333343  0.59123969  0.89615786    -0.23270
C3249       C  0.62061683  0.75601407  0.89191374    -0.06110
C3250       C  0.64035539  0.72303414  0.89719716    -0.00180
C3251       C  0.63767316  0.69855195  0.86669536    -0.08750
C3252       C  0.61851443  0.70921569  0.83277229    -0.06130
C3253       C  0.59925906  0.74245917  0.82824850    -0.00190
C3254       C  0.60096097  0.76635063  0.85909244    -0.08660
C3255       C  0.58276285  0.80359967  0.85832552     0.61720
H3256       H  0.62051625  0.77494466  0.91439661     0.12410
H3257       H  0.61686846  0.69019629  0.81026250     0.12420
C3258       C  0.65093872  0.66001948  0.86826798     0.61950
F3259       F  0.59148786  0.82320899  0.88923777    -0.23220
F3260       F  0.54533596  0.80175313  0.85860426    -0.20540
F3261       F  0.59391474  0.82204811  0.82634493    -0.20220
F3262       F  0.66522011  0.64975672  0.90278055    -0.20270
F3263       F  0.67675090  0.65501031  0.83981746    -0.20600
F3264       F  0.62203208  0.63821052  0.86174191    -0.23270
C3265       C  0.86154268  0.76370255  0.62105895    -0.06110
C3266       C  0.89815721  0.75630204  0.61078325    -0.00180
C3267       C  0.90586707  0.75360883  0.57067660    -0.08750
C3268       C  0.87757046  0.76115332  0.54366327    -0.06130
C3269       C  0.84074449  0.76810331  0.55405042    -0.00190
C3270       C  0.83283337  0.76770531  0.59406898    -0.08660
C3271       C  0.79505384  0.77624887  0.60949669     0.61720
H3272       H  0.85524195  0.76548756  0.65103251     0.12410
H3273       H  0.88373921  0.75978684  0.51365596     0.12420
C3274       C  0.94343434  0.74154870  0.55548333     0.61950
F3275       F  0.79130487  0.76583449  0.64727025    -0.23220
F3276       F  0.76856355  0.75947830  0.58976501    -0.20540
F3277       F  0.78999227  0.81274936  0.60681969    -0.20220
F3278       F  0.95070428  0.70615881  0.56615272    -0.20270
F3279       F  0.97024694  0.76252772  0.56922155    -0.20600
F3280       F  0.94554866  0.74388842  0.51630376    -0.23270
C3281       C  0.85928808  0.63572939  0.98953790    -0.06110
C3282       C  0.82583881  0.62655155  0.97330940    -0.00180
C3283       C  0.82355978  0.59046073  0.96201790    -0.08750
C3284       C  0.85478929  0.56650924  0.96590294    -0.06130
C3285       C  0.88997584  0.57814019  0.47685939    -0.00190
C3286       C  0.89201276  0.61430020  0.48799211    -0.08660
C3287       C  0.92629876  0.63320594  0.49879533     0.61720
H3288       H  0.86359431  0.66304707  0.49826737     0.12410
H3289       H  0.85284224  0.53887303  0.95811530     0.12420
C3290       C  0.79024302  0.57795635  0.94265188     0.61950
F3291       F  0.92975197  0.66391633  0.47629913    -0.23220
F3292       F  0.95798903  0.61304964  0.49425279    -0.20540
F3293       F  0.92291009  0.64310675  0.53616471    -0.20220
F3294       F  0.78888371  0.59496275  0.90781090    -0.20270
F3295       F  0.75882107  0.58622472  0.96337246    -0.20600
F3296       F  0.79191806  0.54138497  0.93709868    -0.23270
C3297       C  0.59385020  0.90761857  0.97746428    -0.06110
C3298       C  0.57888017  0.91109665  0.94107174    -0.00180
C3299       C  0.60058547  0.89794148  0.91038259    -0.08750
C3300       C  0.63467139  0.87888376  0.91764602    -0.06130
C3301       C  0.64919677  0.87444716  0.95447791    -0.00190
C3302       C  0.62863195  0.89071183  0.98446056    -0.08660
C3303       C  0.64289319  0.88961986  0.52450565     0.61720
H3304       H  0.57793200  0.91862048  0.00081119     0.12410
H3305       H  0.64978341  0.86645010  0.89457090     0.12420
C3306       C  0.58687070  0.90288919  0.87029407     0.61950
F3307       F  0.62333495  0.91328151  0.54729842    -0.23220
F3308       F  0.67881313  0.89952565  0.52419374    -0.20540
F3309       F  0.64043825  0.85540779  0.53978005    -0.20220
F3310       F  0.58669989  0.93866251  0.85945921    -0.20270
F3311       F  0.55190154  0.89026569  0.86777680    -0.20600
F3312       F  0.60887724  0.88464347  0.84510884    -0.23270
C3313       C  0.67346923  0.99609773  0.87585688    -0.06110
C3314       C  0.67928146  0.00636635  0.83787130    -0.00180
C3315       C  0.64806401  0.52151506  0.81839745    -0.08750
C3316       C  0.61348949  0.52490522  0.83706894    -0.06130
C3317       C  0.60712351  0.51423563  0.87508774    -0.00190
C3318       C  0.63880661  0.99994277  0.89494403    -0.08660
C3319       C  0.63972614  0.98711312  0.93565010     0.61720
H3320       H  0.69662947  0.98412029  0.89099816     0.12410
H3321       H  0.59052888  0.53592031  0.82091687     0.12420
C3322       C  0.64859605  0.53391687  0.77752295     0.61950
F3323       F  0.65231555  0.95193800  0.93722698    -0.23220
F3324       F  0.60643344  0.98946357  0.95412129    -0.20540
F3325       F  0.66461180  0.00697014  0.95424008    -0.20220
F3326       F  0.62657897  0.51208549  0.75747886    -0.20270
F3327       F  0.68315639  0.53292881  0.76188743    -0.20600
F3328       F  0.63490577  0.56890709  0.77451732    -0.23270
C3329       C  0.83566438  0.97942909  0.54081254    -0.06110
C3330       C  0.86751658  0.96173970  0.55562929    -0.00180
C3331       C  0.86682864  0.95222404  0.59536374    -0.08750
C3332       C  0.83541581  0.96042781  0.61750524    -0.06130
C3333       C  0.80464853  0.97956575  0.60352185    -0.00190
C3334       C  0.80444623  0.98880634  0.56422922    -0.08660
C3335       C  0.77217022  0.50927938  0.54715692     0.61720
H3336       H  0.83623770  0.98793461  0.51126626     0.12410
H3337       H  0.83565311  0.95285793  0.64740241     0.12420
C3338       C  0.89822710  0.93469801  0.61807529     0.61950
F3339       F  0.77721312  0.51683028  0.50896465    -0.23220
F3340       F  0.76648567  0.54124250  0.56554943    -0.20540
F3341       F  0.74136769  0.48908532  0.55160301    -0.20220
F3342       F  0.93013341  0.92834494  0.59794072    -0.20270
F3343       F  0.88716096  0.90223221  0.63325359    -0.20600
F3344       F  0.90642343  0.95657020  0.64755883    -0.23270
C3345       C  0.53050782  0.87863040  0.57807077    -0.06110
C3346       C  0.49434181  0.88252015  0.56421529    -0.00180
C3347       C  0.96860500  0.85688512  0.57704261    -0.08750
C3348       C  0.97915095  0.83106280  0.60455352    -0.06130
C3349       C  0.51506519  0.82595567  0.61830536    -0.00190
C3350       C  0.54169830  0.84983116  0.60371038    -0.08660
C3351       C  0.58175560  0.84423997  0.61330755     0.61720
H3352       H  0.55049253  0.89699822  0.56697681     0.12410
H3353       H  0.95855805  0.81286498  0.61417077     0.12420
C3354       C  0.93116526  0.85226523  0.55907163     0.61950
F3355       F  0.60158066  0.87371550  0.60292563    -0.23220
F3356       F  0.59610330  0.81485012  0.59453926    -0.20540
F3357       F  0.58627430  0.83856534  0.65157163    -0.20220
F3358       F  0.93652570  0.83401519  0.52581442    -0.20270
F3359       F  0.91257488  0.88427129  0.55133888    -0.20600
F3360       F  0.90809464  0.83272704  0.58239787    -0.23270
C3361       C  0.95103981  0.66950020  0.84747782    -0.06110
C3362       C  0.98195855  0.68793003  0.83482900    -0.00180
C3363       C  0.01482390  0.67696661  0.85292753    -0.08750
C3364       C  0.01938985  0.64072303  0.86608998    -0.06130
C3365       C  0.98931793  0.61859862  0.87285156    -0.00190
C3366       C  0.95413868  0.63526200  0.86650352    -0.08660
C3367       C  0.92066113  0.61901669  0.88384537     0.61720
H3368       H  0.92448615  0.68205838  0.84247284     0.12410
H3369       H  0.54566162  0.63175625  0.87735259     0.12420
C3370       C  0.52946637  0.70343341  0.87965778     0.61950
F3371       F  0.88918393  0.64024653  0.87866577    -0.23220
F3372       F  0.92638941  0.61611304  0.92169082    -0.20540
F3373       F  0.91564676  0.58541985  0.86968672    -0.20220
F3374       F  0.50736514  0.70450613  0.91182906    -0.20270
F3375       F  0.52909523  0.73715447  0.86336388    -0.20600
F3376       F  0.56444124  0.69351500  0.89061038    -0.23270
C3377       C  0.64338074  0.56158799  0.67782666    -0.06110
C3378       C  0.67528037  0.57759498  0.68755485    -0.00180
C3379       C  0.68447224  0.60723133  0.66625838    -0.08750
C3380       C  0.67886176  0.60503314  0.62778176    -0.06130
C3381       C  0.65407197  0.57944845  0.61324431    -0.00190
C3382       C  0.64164172  0.55266734  0.63958255    -0.08660
C3383       C  0.63957708  0.51256779  0.63153411     0.61720
H3384       H  0.63205464  0.54371764  0.69895382     0.12410
H3385       H  0.68594911  0.62882876  0.61189588     0.12420
C3386       C  0.70352627  0.63807413  0.68295622     0.61950
F3387       F  0.63855040  0.98981889  0.65952470    -0.23220
F3388       F  0.67183466  0.50012276  0.61501880    -0.20540
F3389       F  0.61091694  0.50391945  0.60967191    -0.20220
F3390       F  0.73820226  0.64062040  0.66715245    -0.20270
F3391       F  0.70649289  0.63346419  0.72185056    -0.20600
F3392       F  0.68358596  0.66955121  0.67537047    -0.23270
C3393       C  0.61931753  0.66288115  0.60423204    -0.06110
C3394       C  0.61044838  0.62682383  0.61104348    -0.00180
C3395       C  0.58538976  0.61835168  0.64286699    -0.08750
C3396       C  0.57163037  0.64651616  0.66300324    -0.06130
C3397       C  0.57349614  0.68069059  0.64832163    -0.00190
C3398       C  0.59900772  0.69040780  0.62061558    -0.08660
C3399       C  0.60533028  0.72917398  0.60974068     0.61720
H3400       H  0.64162281  0.66980653  0.58587453     0.12410
H3401       H  0.55377749  0.64153770  0.68748391     0.12420
C3402       C  0.56550810  0.58402499  0.65631471     0.61950
F3403       F  0.63308507  0.73252027  0.58296223    -0.23220
F3404       F  0.61497167  0.74732100  0.64149922    -0.20540
F3405       F  0.57369277  0.74467161  0.59469102    -0.20220
F3406       F  0.57353358  0.57588009  0.69377006    -0.20270
F3407       F  0.57144686  0.55392257  0.63564418    -0.20600
F3408       F  0.52819588  0.59068797  0.65601829    -0.23270
C3409       C  0.65707832  0.66753365  0.51529476    -0.06110
C3410       C  0.69289976  0.66805234  0.52887090    -0.00180
C3411       C  0.71039599  0.63591270  0.54206369    -0.08750
C3412       C  0.68832555  0.60621554  0.54675567    -0.06130
C3413       C  0.64969628  0.61200400  0.54873406    -0.00190
C3414       C  0.63534293  0.63849948  0.52273910    -0.08660
C3415       C  0.59854363  0.63920147  0.50330616     0.61720
H3416       H  0.64464599  0.69172891  0.00175062     0.12410
H3417       H  0.70112977  0.58221979  0.55902794     0.12420
C3418       C  0.74955499  0.63236616  0.55647575     0.61950
F3419       F  0.60444726  0.65349197  0.96546304    -0.23220
F3420       F  0.57315177  0.65954675  0.52355066    -0.20540
F3421       F  0.58716779  0.60503732  0.99697369    -0.20220
F3422       F  0.76572633  0.66479254  0.56071053    -0.20270
F3423       F  0.77056447  0.61200936  0.53188772    -0.20600
F3424       F  0.75023460  0.61504158  0.59155238    -0.23270
C3425       C  0.56818697  0.52588126  0.54933416    -0.06110
C3426       C  0.53384449  0.54324089  0.55380908    -0.00180
C3427       C  0.52944800  0.57798678  0.56634051    -0.08750
C3428       C  0.56070441  0.59565787  0.57101457    -0.06130
C3429       C  0.59617355  0.57840712  0.56949882    -0.00190
C3430       C  0.59985149  0.54497472  0.55228090    -0.08660
C3431       C  0.63450062  0.53138155  0.53234214     0.61720
H3432       H  0.56960826  0.49980272  0.53639547     0.12410
H3433       H  0.55647561  0.62375372  0.57674404     0.12420
C3434       C  0.99329051  0.59947014  0.56983758     0.61950
F3435       F  0.62973026  0.99525912  0.52218266    -0.23220
F3436       F  0.66480976  0.53263177  0.55439165    -0.20540
F3437       F  0.63987202  0.55253327  0.50021844    -0.20220
F3438       F  0.98749935  0.61072121  0.60630001    -0.20270
F3439       F  0.96328615  0.58034459  0.56046561    -0.20600
F3440       F  0.99526231  0.62993090  0.54690352    -0.23270
C3441       C  0.85807582  0.93369931  0.87647430    -0.06110
C3442       C  0.86581607  0.89720943  0.88585438    -0.00180
C3443       C  0.88583915  0.89244065  0.91941560    -0.08750
C3444       C  0.91661631  0.91318337  0.92185997    -0.06130
C3445       C  0.91772432  0.94554076  0.90058479    -0.00190
C3446       C  0.88514193  0.95861390  0.88320270    -0.08660
C3447       C  0.87991975  0.99764109  0.87116951     0.61720
H3448       H  0.83655473  0.94176338  0.85729506     0.12410
H3449       H  0.93778262  0.90503583  0.94136158     0.12420
C3450       C  0.86922587  0.87608427  0.95513394     0.61950
F3451       F  0.84477348  0.50536330  0.85840239    -0.23220
F3452       F  0.90454839  0.50616667  0.84229422    -0.20540
F3453       F  0.88603409  0.51880637  0.90142696    -0.20220
F3454       F  0.83479857  0.86372468  0.94867860    -0.20270
F3455       F  0.86539615  0.90170087  0.98248540    -0.20600
F3456       F  0.89121791  0.84825393  0.96916178    -0.23270
C3457       C  0.85546512  0.81298372  0.89432699    -0.06110
C3458       C  0.84374175  0.83925073  0.86760979    -0.00180
C3459       C  0.80731841  0.83615647  0.85344286    -0.08750
C3460       C  0.79095728  0.80269216  0.85803578    -0.06130
C3461       C  0.80070564  0.78158266  0.88981397    -0.00190
C3462       C  0.83750957  0.78144954  0.90035824    -0.08660
C3463       C  0.85740457  0.75010852  0.92017035     0.61720
H3464       H  0.87872223  0.81697249  0.91112070     0.12410
H3465       H  0.76344270  0.80024507  0.84753022     0.12420
C3466       C  0.78152473  0.86704987  0.84103483     0.61950
F3467       F  0.89334160  0.75731395  0.92765617    -0.23220
F3468       F  0.85799792  0.72044676  0.89767175    -0.20540
F3469       F  0.84076847  0.74236934  0.95416137    -0.20220
F3470       F  0.76878839  0.86191889  0.80510729    -0.20270
F3471       F  0.79711960  0.89969772  0.84166411    -0.20600
F3472       F  0.75158979  0.86853699  0.86550258    -0.23270
C3473       C  0.87881948  0.91483797  0.80207069    -0.06110
C3474       C  0.86435110  0.88121789  0.81308208    -0.00180
C3475       C  0.84889295  0.86161496  0.78237867    -0.08750
C3476       C  0.83735781  0.88169257  0.75030850    -0.06130
C3477       C  0.84268654  0.91834819  0.74773174    -0.00190
C3478       C  0.87106512  0.93215384  0.76793146    -0.08660
C3479       C  0.88376594  0.97007112  0.76128747     0.61720
H3480       H  0.89677453  0.92844906  0.81999556     0.12410
H3481       H  0.81966810  0.86997959  0.72998425     0.12420
C3482       C  0.84420050  0.82131578  0.77825599     0.61950
F3483       F  0.91988771  0.97295329  0.77128615    -0.23220
F3484       F  0.86275182  0.99306488  0.78331060    -0.20540
F3485       F  0.88049678  0.48038396  0.72327030    -0.20220
F3486       F  0.80774092  0.81407725  0.77397788    -0.20270
F3487       F  0.85750567  0.80011663  0.80755581    -0.20600
F3488       F  0.86214338  0.81060157  0.74549446    -0.23270
C3489       C  0.92655809  0.79808493  0.82980163    -0.06110
C3490       C  0.93186281  0.81599234  0.79475723    -0.00180
C3491       C  0.94055620  0.85316140  0.79478125    -0.08750
C3492       C  0.93783659  0.87002950  0.83006355    -0.06130
C3493       C  0.91371893  0.85451936  0.85651977    -0.00190
C3494       C  0.92442395  0.81818231  0.86230845    -0.08660
C3495       C  0.95228809  0.80836267  0.89241053     0.61720
H3496       H  0.92724594  0.76913374  0.83229777     0.12410
H3497       H  0.94498927  0.89758360  0.83293397     0.12420
C3498       C  0.94556993  0.87623663  0.75890955     0.61950
F3499       F  0.98481695  0.82394879  0.88275499    -0.23220
F3500       F  0.95825324  0.77159277  0.89560079    -0.20540
F3501       F  0.94124337  0.82089153  0.92722415    -0.20220
F3502       F  0.91601849  0.87338402  0.73552173    -0.20270
F3503       F  0.97598521  0.86661047  0.73884193    -0.20600
F3504       F  0.94956236  0.91169547  0.76710522    -0.23270
loop_ 
_geom_bond_atom_site_label_1 
_geom_bond_atom_site_label_2 
_geom_bond_distance 
_geom_bond_site_symmetry_2 
_ccdc_geom_bond_type 
C1          C376   1.569       .  S
C1          C392   1.548       .  S
C1          C408   1.578       .  S
C1          C427   1.607       .  S
C2          C315   1.542       .  S
C2          C328   1.557       .  S
C2          C347   1.570       .  S
C2          C363   1.503       .  S
O3           C11   1.258       .  A
O3        Co1775   1.987       .  S
O4           C12   1.258       .  A
O4         Co900   2.003   1_546  S
O5           C13   1.327       .  A
O5          Co25   2.193       .  S
O6           C14   1.265       .  A
O6          Co26   1.922       .  S
O7          C451   1.256       .  A
O7          Co24   1.867       .  S
O8           C14   1.315       .  A
O8        Co2651   2.174   1_545  S
O9          C450   1.275       .  A
O9          Co26   2.031       .  S
O10          C11   1.285       .  A
O10         Co25   1.935       .  S
C11         C379   1.458       .  S
C12         O447   1.275       .  A
C12         C219   1.515       .  S
C13         O445   1.256       .  A
C13         C702   1.518       .  S
C14         C299   1.537       .  S
O15          C28   1.285       .  A
O15        Co899   1.914   1_545  S
O16        C1781   1.308       .  A
O16         Co24   2.142       .  S
O17          C30   1.271       .  A
O17       Co1777   2.020   1_455  S
O18          C31   1.260   1_556  A
O18       Co2216   1.898       .  S
O19        C1783   1.243       .  A
O19        Co900   1.889   1_545  S
O20          C30   1.272       .  A
O20         Co23   2.034       .  S
O21          C28   1.319       .  A
O21       Co1778   2.167       .  S
O22        C2219   1.254       .  A
O22         Co25   1.887       .  S
Co23       O1755   1.987   1_455  S
Co23       O2636   2.173   1_455  S
Co23        O891   1.914       .  S
Co23       O1779   2.086   1_455  S
Co24        O880   2.003   1_554  S
Co24        O895   1.888       .  S
Co24        O465   1.991   1_554  S
Co25       O1769   2.020       .  S
Co25         O27   2.082       .  S
Co26       O2208   1.898       .  S
Co26       O1773   2.167       .  S
Co26        O903   1.979   1_545  S
O27       Co1775   2.086       .  S
O27        Co462   1.990       .  S
O27        Co902   1.980       .  S
C28         C251   1.549       .  S
C29        O1768   1.308       .  A
C29        O2212   1.254       .  A
C29         C280   1.515       .  S
C30         C232   1.524       .  S
C31        O1771   1.243   1_455  A
C31         C360   1.383       .  S
O32          C40   1.243       .  A
O32         Co52   1.938       .  S
O33          C41   1.276       .  A
O33         Co53   2.034       .  S
O34          C42   1.268       .  A
O34         Co54   2.154       .  S
O35          C43   1.249       .  A
O35         Co55   1.951       .  S
O36          C42   1.231       .  A
O36         Co53   2.003       .  S
O37          C43   1.288       .  A
O37         Co52   2.103       .  S
O38          C41   1.261       .  A
O38         Co55   1.968       .  S
O39          C40   1.288       .  A
O39         Co54   1.929       .  S
C40         C395   1.460       .  S
C41         C184   1.556       .  S
C42         C171   1.550       .  S
C43         C235   1.527       .  S
O44          C57   1.232       .  A
O44        Co490   1.928   1_554  S
O45          C58   1.309       .  A
O45         Co53   2.125       .  S
O46          C59   1.264       .  A
O46         Co54   2.027       .  S
O47          C60   1.257       .  A
O47        Co493   1.961   1_554  S
O48         C498   1.242       .  A
O48         Co53   1.924       .  S
O49          C59   1.287       .  A
O49         Co52   2.086       .  S
O50          C57   1.274       .  A
O50        Co493   2.086   1_554  S
O51          C58   1.263       .  A
O51         Co54   1.909       .  S
Co52        O482   1.928       .  S
Co52         O56   2.207       .  S
Co53         O56   2.112       .  S
Co54         O56   2.183       .  S
Co55        O485   1.960       .  S
Co55        O488   2.085       .  S
Co55         O56   2.133       .  S
C57         C152   1.524       .  S
C58         C216   1.534       .  S
C59         C641   1.550       .  S
C60         O486   1.241       .  A
C60         C344   1.440       .  S
O61          C69   1.254       .  A
O61         Co81   2.005       .  S
O62          C70   1.293       .  A
O62         Co82   2.113       .  S
O63          C71   1.261       .  A
O63         Co83   2.019       .  S
O64          C72   1.244       .  A
O64         Co84   1.923       .  S
O65          C71   1.255       .  A
O65         Co82   1.974       .  S
O66          C72   1.313       .  A
O66         Co81   2.186       .  S
O67        C1822   1.257       .  A
O67         Co84   1.945       .  S
O68          C69   1.223       .  A
O68       Co1835   1.922       .  S
C69         C424   1.453       .  S
C70        O1819   1.257   1_455  A
C70         C283   1.532       .  S
C71         C136   1.502       .  S
C72         C200   1.545       .  S
O73          C86   1.261       .  A
O73         Co81   1.902       .  S
O74          C87   1.280       .  A
O74         Co82   2.041       .  S
O75          C88   1.292       .  A
O75       Co1835   2.091       .  S
O76          C89   1.242       .  A
O76       Co1836   1.959   1_455  S
O77          C89   1.229       .  A
O77         Co82   1.879       .  S
O78          C88   1.275       .  A
O78         Co81   2.014       .  S
O79          C86   1.312       .  A
O79         Co84   2.153       .  S
O80          C87   1.269       .  A
O80         Co83   2.004       .  S
Co81         O85   2.116       .  S
Co82       O1837   2.041       .  S
Co83       O1820   1.922   1_455  S
Co83       O1827   2.091   1_455  S
Co83       O1837   1.977       .  S
Co84       O1828   1.959       .  S
Co84         O85   2.052       .  S
O85       Co1834   2.041       .  S
O85       Co1835   1.977       .  S
C86         C123   1.519       .  S
C87         C187   1.538       .  S
C88         C296   1.543       .  S
C89         C331   1.394       .  S
O90          C98   1.250       .  A
O90        Co110   1.925       .  S
O91         C975   1.288       .  A
O91        Co111   1.952       .  S
O92         C100   1.255       .  A
O92        Co112   2.082       .  S
O93         C101   1.252       .  A
O93        Co113   1.857       .  S
O94         C100   1.251       .  A
O94        Co111   2.002       .  S
O95         C101   1.321       .  A
O95        Co986   2.182       .  S
O96          C99   1.303   1_545  A
O96        Co113   2.082       .  S
O97          C98   1.271       .  A
O97        Co112   1.971       .  S
C98         C411   1.439       .  S
C99         O967   1.288       .  A
C99        C1143   1.520       .  S
C100        C155   1.540       .  S
C101        C120   1.498       .  S
O102        C115   1.282       .  A
O102       Co986   2.043       .  S
O103        C116   1.300       .  A
O103       Co111   2.110       .  S
O104        C117   1.262       .  A
O104       Co112   1.991       .  S
O105        C118   1.246       .  A
O105       Co113   1.908       .  S
O106        C118   1.247       .  A
O106       Co987   1.890   1_545  S
O107        C117   1.298       .  A
O107       Co110   2.088       .  S
O108        C115   1.280       .  A
O108       Co113   2.148       .  S
O109        C116   1.252       .  A
O109       Co112   1.942       .  S
Co110       O971   2.182       .  S
Co110       O978   2.043       .  S
Co110       O114   1.998       .  S
Co111       O982   1.891       .  S
Co111       O114   1.937       .  S
Co112       O114   2.103       .  S
Co113       O990   2.077   1_545  S
O114       Co989   2.077       .  S
C115        C168   1.569       .  S
C116        C139   1.505       .  S
C117        C248   1.533       .  S
C118        C312   1.450       .  S
C119        C120   1.375       .  A
C119        C124   1.400       .  A
C119        H126   1.083       .  S
C120        C121   1.435       .  A
C121        C128   1.517       .  S
C121        C122   1.432       .  A
C122        C123   1.407       .  A
C122        H127   1.083       .  S
C123        C124   1.420       .  A
C124        C125   1.480       .  S
C125        F129   1.373       .  S
C125        F130   1.380       .  S
C125        F131   1.381       .  S
C128        F132   1.382       .  S
C128        F133   1.384       .  S
C128        F134   1.384       .  S
C135        C136   1.397       .  A
C135        C140   1.400       .  A
C135        H142   1.077       .  S
C136        C137   1.427       .  A
C137        C144   1.515       .  S
C137        C138   1.422       .  A
C138        C139   1.408       .  A
C138        H143   1.078       .  S
C139        C140   1.433       .  A
C140        C141   1.534       .  S
C141        F145   1.385       .  S
C141        F146   1.382       .  S
C141        F147   1.367       .  S
C144        F148   1.383       .  S
C144        F149   1.376       .  S
C144        F150   1.383       .  S
C151        C152   1.406       .  A
C151        C156   1.432       .  A
C151        H158   1.083       .  S
C152        C153   1.439       .  A
C153        C160   1.527       .  S
C153        C154   1.417       .  A
C154        C155   1.403       .  A
C154        H159   1.075       .  S
C155        C156   1.434       .  A
C156        C157   1.509       .  S
C157        F161   1.385       .  S
C157        F162   1.369       .  S
C157        F163   1.383       .  S
C160        F164   1.374       .  S
C160        F165   1.382       .  S
C160        F166   1.376       .  S
C167        C168   1.428       .  A
C167        C172   1.452       .  A
C167        H174   1.082       .  S
C168        C169   1.434       .  A
C169        C176   1.511       .  S
C169        C170   1.423       .  A
C170        C171   1.400       .  A
C170        H175   1.078       .  S
C171        C172   1.428       .  A
C172        C173   1.511       .  S
C173        F177   1.384       .  S
C173        F178   1.381       .  S
C173        F179   1.383       .  S
C176        F180   1.379       .  S
C176        F181   1.375       .  S
C176        F182   1.382       .  S
C183        C184   1.414       .  A
C183        C188   1.411       .  A
C183        H190   1.077       .  S
C184        C185   1.439       .  A
C185        C192   1.502       .  S
C185        C186   1.437       .  A
C186        C187   1.411       .  A
C186        H191   1.084       .  S
C187        C188   1.430       .  A
C188        C189   1.520       .  S
C189        F193   1.379       .  S
C189        F194   1.373       .  S
C189        F195   1.371       .  S
C192        F196   1.373       .  S
C192        F197   1.379       .  S
C192        F198   1.384       .  S
C199        C200   1.401       .  A
C199        C204   1.430       .  A
C199        H206   1.083       .  S
C200        C201   1.445       .  A
C201        C208   1.524       .  S
C201        C202   1.434       .  A
C202        C203   1.406       .  A
C202        H207   1.082       .  S
C203        C497   1.550       .  S
C203        C204   1.437       .  A
C204        C205   1.503       .  S
C205        F209   1.385       .  S
C205        F210   1.381       .  S
C205        F211   1.370       .  S
C208        F212   1.382       .  S
C208        F213   1.379       .  S
C208        F214   1.385       .  S
C215        C216   1.416       .  A
C215        C658   1.396       .  A
C215        H660   1.083       .  S
C216        C217   1.422       .  A
C217        C224   1.502       .  S
C217        C218   1.431       .  A
C218        C657   1.417       .  A
C218        H223   1.081       .  S
C219        C220   1.422       .  A
C219        C656   1.417       .  A
C220        C221   1.518       .  S
C220        C653   1.397       .  A
C221        F225   1.386       .  S
C221        F226   1.368       .  S
C221        F227   1.382   1_556  S
H222        C653   1.083   1_554  S
C224        F228   1.370       .  S
C224        F229   1.382       .  S
C224        F230   1.384       .  S
C231        C232   1.406       .  A
C231        C236   1.421       .  A
C231        H238   1.083       .  S
C232        C233   1.421       .  A
C233        C240   1.514       .  S
C233        C234   1.436       .  A
C234        C235   1.416       .  A
C234        H239   1.083       .  S
C235        C236   1.425       .  A
C236        C675   1.508       .  S
C237        C674   1.508   1_554  S
C237        F241   1.384       .  S
C237        F242   1.377       .  S
C237        F243   1.379       .  S
C240        F244   1.380       .  S
C240        F245   1.384       .  S
C240        F246   1.368       .  S
C247        C248   1.400       .  A
C247        C252   1.431       .  A
C247        H254   1.085       .  S
C248       C1125   1.429       .  A
C249        C256   1.505       .  S
C249        C250   1.420       .  A
C249       C1124   1.429       .  A
C250        C251   1.409       .  A
C250        H255   1.085       .  S
C251       C1128   1.442   1_545  A
C252        C253   1.504       .  S
C252       C1127   1.442       .  A
C253        F257   1.377       .  S
C253        F258   1.373       .  S
C253        F259   1.380       .  S
C256        F260   1.382       .  S
C256        F261   1.370       .  S
C256        F262   1.384       .  S
C263        C264   1.418       .  A
C263        C268   1.437       .  A
C263        H270   1.082       .  S
C264        C451   1.518       .  S
C264        C265   1.438       .  A
C265        C272   1.528       .  S
C265        C266   1.408       .  A
C266        C267   1.400       .  A
C266        H271   1.086       .  S
C267        C975   1.520       .  S
C267        C268   1.421       .  A
C268       C1145   1.511       .  S
C269       C1144   1.511   1_545  S
C269        F273   1.381       .  S
C269        F274   1.382       .  S
C269        F275   1.383   1_545  S
C272        F276   1.373       .  S
C272        F277   1.384       .  S
C272        F278   1.384       .  S
C279        C280   1.419   1_455  A
C279        C284   1.439       .  A
C279        H286   1.082       .  S
C280       C2033   1.427       .  A
C281        C288   1.535       .  S
C281        C282   1.399       .  A
C281       C2032   1.427       .  A
C282       C2035   1.412       .  A
C282        H287   1.077       .  S
C283        C284   1.425       .  A
C283       C2034   1.412   1_455  A
C284        C285   1.514       .  S
C285        F289   1.378       .  S
C285        F290   1.381       .  S
C285        F291   1.374       .  S
C288        F292   1.381       .  S
C288        F293   1.377       .  S
C288        F294   1.383       .  S
C295        C296   1.405       .  A
C295        C300   1.430       .  A
C295        H302   1.078       .  S
C296        C297   1.413       .  A
C297       C2056   1.504       .  S
C297        C298   1.425       .  A
C298        C299   1.413       .  A
C298       H2055   1.084       .  S
C299        C300   1.427       .  A
C300        C301   1.500       .  S
C301        F305   1.385       .  S
C301        F306   1.354       .  S
C301        F307   1.383       .  S
H303       C2050   1.084       .  S
C304       C2049   1.504       .  S
C304        F308   1.384       .  S
C304        F309   1.370       .  S
C304        F310   1.377       .  S
C311        C312   1.383       .  A
C311        C316   1.403       .  A
C311        H318   1.077       .  S
C312        C313   1.371       .  A
C313        C320   1.507       .  S
C313        C314   1.383       .  A
C314        C315   1.449       .  A
C314        H319   1.075       .  S
C315        C316   1.428       .  A
C316        C317   1.537       .  S
C317        F322   1.378   1_545  S
C317        F323   1.365       .  S
C317       F1197   1.373   1_545  S
C320        F324   1.382       .  S
C320        F325   1.385       .  S
C320        F326   1.383       .  S
F321       C1193   1.373       .  S
C327        C328   1.409       .  A
C327        C332   1.380       .  A
C327        H334   1.069       .  S
C328        C329   1.474       .  A
C329        C336   1.556       .  S
C329        C330   1.364       .  A
C330        C331   1.368       .  A
C330        H335   1.091       .  S
C331        C332   1.391       .  A
C332        C333   1.513       .  S
C333        F337   1.383       .  S
C333        F338   1.383       .  S
C333        F339   1.382       .  S
C336        F340   1.383       .  S
C336        F341   1.366       .  S
C336        F342   1.378       .  S
C343        C344   1.403       .  A
C343        C348   1.383       .  A
C343        H788   1.083       .  S
C344        C345   1.412       .  A
C345        C352   1.527       .  S
C345        C346   1.400       .  A
C346        C347   1.420       .  A
C346        H351   1.080       .  S
C347        C348   1.422       .  A
C348        C349   1.520       .  S
C349        F354   1.382       .  S
C349        F791   1.386   1_554  S
C349        F793   1.377   1_554  S
H350        C781   1.083       .  S
C352        F356   1.380       .  S
C352        F357   1.376       .  S
C352        F358   1.382       .  S
F353        C787   1.385       .  S
F355        C787   1.377       .  S
C359        C360   1.402       .  A
C359        C364   1.389       .  A
C359        H366   1.086       .  S
C360        C361   1.387       .  A
C361       C2120   1.523   1_455  S
C361        C362   1.354       .  A
C362        C363   1.426       .  A
C362        H367   1.081       .  S
C363        C364   1.401       .  A
C364        C365   1.516       .  S
C365        F370   1.368       .  S
C365        F371   1.380   1_554  S
C365       F1245   1.383   1_545  S
C368       C2113   1.523       .  S
C368        F372   1.377       .  S
C368        F373   1.381       .  S
C368        F374   1.382       .  S
F369       C1241   1.383       .  S
C375        C376   1.414       .  A
C375        C380   1.410       .  A
C375        H382   1.076       .  S
C376        C377   1.407       .  A
C377        C384   1.514       .  S
C377        C378   1.394       .  A
C378        C379   1.407       .  A
C378        H383   1.074       .  S
C379        C380   1.414       .  A
C380        C381   1.514       .  S
C381       F1261   1.384       .  S
C381       F1262   1.381       .  S
C381       F1263   1.380       .  S
C384        F388   1.381       .  S
C384        F389   1.380       .  S
C384        F390   1.377       .  S
F385       C1257   1.384   1_545  S
F386       C1257   1.381   1_545  S
F387       C1257   1.380   1_545  S
C391        C392   1.403       .  A
C391        C396   1.379       .  A
C391        H398   1.063       .  S
C392        C393   1.440       .  A
C393        C400   1.523       .  S
C393        C394   1.410       .  A
C394        C395   1.397       .  A
C394        H399   1.086       .  S
C395        C396   1.402       .  A
C396        C397   1.516       .  S
C397        F401   1.382       .  S
C397        F402   1.380       .  S
C397        F403   1.366       .  S
C400        F404   1.379       .  S
C400        F405   1.366       .  S
C400        F406   1.384       .  S
C407        C408   1.422       .  A
C407        C412   1.381       .  A
C407        H414   1.070       .  S
C408        C409   1.457       .  A
C409        C416   1.532       .  S
C409        C410   1.403       .  A
C410        C411   1.391       .  A
C410        H415   1.085       .  S
C411        C412   1.391       .  A
C412        C413   1.517       .  S
C413        F417   1.381       .  S
C413        F418   1.379       .  S
C413       F1295   1.383       .  S
C416        F420   1.381       .  S
C416        F421   1.370       .  S
C416        F422   1.382       .  S
F419       C1289   1.383       .  S
C423        C424   1.405       .  A
C423        C428   1.388       .  A
C423        H430   1.082       .  S
C424        C425   1.436       .  A
C425        C432   1.525       .  S
C425        C426   1.412       .  A
C426        C427   1.402       .  A
C426        H431   1.079       .  S
C427        C428   1.409       .  A
C428        C429   1.513       .  S
C429        F433   1.377       .  S
C429        F434   1.385       .  S
C429        F435   1.377       .  S
C432        F436   1.380       .  S
C432        F437   1.352       .  S
C432        F438   1.377       .  S
C439        C814   1.569       .  S
C439        C830   1.549       .  S
C439        C846   1.578       .  S
C439        C865   1.607       .  S
C440        C753   1.544       .  S
C440        C766   1.558       .  S
C440        C785   1.571       .  S
C440        C801   1.502       .  S
O441        C449   1.258       .  A
O441      Co2213   1.987       .  S
O442        C450   1.258       .  A
O442      Co1338   2.001   1_545  S
O443        C451   1.327   1_556  A
O443       Co463   2.192       .  S
O444        C452   1.265       .  A
O444       Co464   1.921       .  S
O445       Co462   1.868       .  S
O446        C452   1.315       .  A
O446      Co3089   2.173   1_545  S
O447       Co464   2.033       .  S
O448        C449   1.284       .  A
O448       Co463   1.934       .  S
C449        C817   1.458       .  S
C450        C657   1.514       .  S
C452        C737   1.535       .  S
O453        C466   1.285       .  A
O453      Co1337   1.914   1_545  S
O454       C2219   1.308       .  A
O454       Co462   2.142       .  S
O455        C468   1.271       .  A
O455      Co2215   2.021   1_455  S
O456        C469   1.261       .  A
O456      Co1778   1.898       .  S
O457       C2221   1.243       .  A
O457      Co1338   1.891   1_545  S
O458        C468   1.271       .  A
O458       Co461   2.033       .  S
O459        C466   1.318       .  A
O459      Co2216   2.167       .  S
O460       C1781   1.254       .  A
O460       Co463   1.886   1_554  S
Co461      O2193   1.987   1_455  S
Co461      O3074   2.173   1_455  S
Co461      O1329   1.914       .  S
Co461      O2217   2.087   1_455  S
Co462      O1318   2.002       .  S
Co462      O1333   1.887       .  S
Co463      O2207   2.021       .  S
Co463       O465   2.084       .  S
Co464      O1770   1.898       .  S
Co464      O2211   2.167       .  S
Co464      O1341   1.980   1_545  S
O465      Co2213   2.087       .  S
O465      Co1340   1.980       .  S
C466        C689   1.548       .  S
C467       O2206   1.308       .  A
C467       O1774   1.254       .  A
C467        C718   1.514       .  S
C468        C670   1.524       .  S
C469       O2209   1.243   1_455  A
C469        C798   1.383       .  S
O470        C478   1.243       .  A
O470       Co490   1.938       .  S
O471        C479   1.277       .  A
O471       Co491   2.034       .  S
O472        C480   1.268       .  A
O472       Co492   2.153       .  S
O473        C481   1.249       .  A
O473       Co493   1.950       .  S
O474        C480   1.231       .  A
O474       Co491   2.002       .  S
O475        C481   1.288       .  A
O475       Co490   2.103       .  S
O476        C479   1.261       .  A
O476       Co493   1.968       .  S
O477        C478   1.288       .  A
O477       Co492   1.929       .  S
C478        C833   1.460       .  S
C479        C622   1.557       .  S
C480        C609   1.549       .  S
C481        C673   1.527       .  S
O482        C495   1.232       .  A
O483        C496   1.309       .  A
O483       Co491   2.125       .  S
O484        C497   1.265       .  A
O484       Co492   2.026   1_554  S
O485        C498   1.257       .  A
O486       Co491   1.924   1_554  S
O487        C497   1.287   1_556  A
O487       Co490   2.086       .  S
O488        C495   1.274       .  A
O489        C496   1.263       .  A
O489       Co492   1.910       .  S
Co490       O494   2.207       .  S
Co491       O494   2.111       .  S
Co492       O494   2.185       .  S
Co493       O494   2.134       .  S
C495        C590   1.523       .  S
C496        C654   1.534       .  S
C498        C782   1.439       .  S
O499        C507   1.254       .  A
O499       Co519   2.005       .  S
O500        C508   1.293       .  A
O500       Co520   2.113       .  S
O501        C509   1.261       .  A
O501       Co521   2.020       .  S
O502        C510   1.244       .  A
O502       Co522   1.923       .  S
O503        C509   1.255       .  A
O503       Co520   1.976       .  S
O504        C510   1.313       .  A
O504       Co519   2.186       .  S
O505       C2260   1.257       .  A
O505       Co522   1.945       .  S
O506        C507   1.223       .  A
O506      Co2273   1.923       .  S
C507        C862   1.454       .  S
C508       O2257   1.257   1_455  A
C508        C721   1.533       .  S
C509        C574   1.503       .  S
C510        C638   1.545       .  S
O511        C524   1.261       .  A
O511       Co519   1.903       .  S
O512        C525   1.280       .  A
O512       Co520   2.042       .  S
O513        C526   1.292       .  A
O513      Co2273   2.091       .  S
O514        C527   1.243       .  A
O514      Co2274   1.959   1_455  S
O515        C527   1.229       .  A
O515       Co520   1.882       .  S
O516        C526   1.275       .  A
O516       Co519   2.012       .  S
O517        C524   1.312       .  A
O517       Co522   2.154       .  S
O518        C525   1.269       .  A
O518       Co521   2.004       .  S
Co519       O523   2.117       .  S
Co520      O2275   2.043       .  S
Co521      O2258   1.923   1_455  S
Co521      O2265   2.091   1_455  S
Co521      O2275   1.978       .  S
Co522      O2266   1.959       .  S
Co522       O523   2.051       .  S
O523      Co2272   2.043       .  S
O523      Co2273   1.978       .  S
C524        C561   1.520       .  S
C525        C625   1.539       .  S
C526        C734   1.541       .  S
C527        C769   1.394       .  S
O528        C536   1.250       .  A
O528       Co548   1.925       .  S
O529       C1413   1.288       .  A
O529       Co549   1.953       .  S
O530        C538   1.255       .  A
O530       Co550   2.081       .  S
O531        C539   1.253       .  A
O531       Co551   1.859       .  S
O532        C538   1.250       .  A
O532       Co549   2.002       .  S
O533        C539   1.321       .  A
O533      Co1424   2.182       .  S
O534        C537   1.303   1_545  A
O534       Co551   2.083       .  S
O535        C536   1.271       .  A
O535       Co550   1.971       .  S
C536        C849   1.440       .  S
C537       O1405   1.288       .  A
C537       C1581   1.519       .  S
C538        C593   1.540       .  S
C539        C558   1.499       .  S
O540        C553   1.282       .  A
O540      Co1424   2.043       .  S
O541        C554   1.300       .  A
O541       Co549   2.112       .  S
O542        C555   1.262       .  A
O542       Co550   1.992       .  S
O543        C556   1.247       .  A
O543       Co551   1.910       .  S
O544        C556   1.246       .  A
O544      Co1425   1.888   1_545  S
O545        C555   1.299       .  A
O545       Co548   2.088       .  S
O546        C553   1.280       .  A
O546       Co551   2.146       .  S
O547        C554   1.253       .  A
O547       Co550   1.942       .  S
Co548      O1409   2.183       .  S
Co548      O1416   2.042       .  S
Co548       O552   1.998       .  S
Co549      O1420   1.892       .  S
Co549       O552   1.937       .  S
Co550       O552   2.103       .  S
Co551      O1428   2.077   1_545  S
O552      Co1427   2.078       .  S
C553        C606   1.568       .  S
C554        C577   1.507       .  S
C555        C686   1.533       .  S
C556        C750   1.449       .  S
C557        C558   1.376       .  A
C557        C562   1.401       .  A
C557        H564   1.083       .  S
C558        C559   1.435       .  A
C559        C566   1.517       .  S
C559        C560   1.432       .  A
C560        C561   1.407       .  A
C560        H565   1.083       .  S
C561        C562   1.420       .  A
C562        C563   1.480       .  S
C563        F567   1.374       .  S
C563        F568   1.380       .  S
C563        F569   1.381       .  S
C566        F570   1.382       .  S
C566        F571   1.384       .  S
C566        F572   1.384       .  S
C573        C574   1.397       .  A
C573        C578   1.401       .  A
C573        H580   1.077       .  S
C574        C575   1.428       .  A
C575        C582   1.515       .  S
C575        C576   1.423       .  A
C576        C577   1.409       .  A
C576        H581   1.077       .  S
C577        C578   1.433       .  A
C578        C579   1.534       .  S
C579        F583   1.385       .  S
C579        F584   1.382       .  S
C579        F585   1.367       .  S
C582        F586   1.383       .  S
C582        F587   1.376       .  S
C582        F588   1.383       .  S
C589        C590   1.406       .  A
C589        C594   1.432       .  A
C589        H596   1.083       .  S
C590        C591   1.438       .  A
C591        C598   1.527       .  S
C591        C592   1.417       .  A
C592        C593   1.403       .  A
C592        H597   1.075       .  S
C593        C594   1.434       .  A
C594        C595   1.509       .  S
C595        F599   1.385       .  S
C595        F600   1.369       .  S
C595        F601   1.384       .  S
C598        F602   1.374       .  S
C598        F603   1.382       .  S
C598        F604   1.376       .  S
C605        C606   1.428       .  A
C605        C610   1.452       .  A
C605        H612   1.082       .  S
C606        C607   1.434       .  A
C607        C614   1.511       .  S
C607        C608   1.422       .  A
C608        C609   1.400       .  A
C608        H613   1.078       .  S
C609        C610   1.427       .  A
C610        C611   1.511       .  S
C611        F615   1.384       .  S
C611        F616   1.381       .  S
C611        F617   1.383       .  S
C614        F618   1.379       .  S
C614        F619   1.375       .  S
C614        F620   1.382       .  S
C621        C622   1.415       .  A
C621        C626   1.411       .  A
C621        H628   1.077       .  S
C622        C623   1.439       .  A
C623        C630   1.502       .  S
C623        C624   1.437       .  A
C624        C625   1.411       .  A
C624        H629   1.084       .  S
C625        C626   1.430       .  A
C626        C627   1.521       .  S
C627        F631   1.379       .  S
C627        F632   1.373       .  S
C627        F633   1.371       .  S
C630        F634   1.373       .  S
C630        F635   1.379       .  S
C630        F636   1.384       .  S
C637        C638   1.401       .  A
C637        C642   1.430       .  A
C637        H644   1.083       .  S
C638        C639   1.445       .  A
C639        C646   1.524       .  S
C639        C640   1.434       .  A
C640        C641   1.406       .  A
C640        H645   1.082       .  S
C641        C642   1.437       .  A
C642        C643   1.503       .  S
C643        F647   1.385       .  S
C643        F648   1.381       .  S
C643        F649   1.370       .  S
C646        F650   1.382       .  S
C646        F651   1.379       .  S
C646        F652   1.385       .  S
C653        C654   1.416       .  A
C654        C655   1.422       .  A
C655        C662   1.502       .  S
C655        C656   1.431       .  A
C656        H661   1.081       .  S
C657        C658   1.422       .  A
C658        C659   1.519       .  S
C659        F663   1.386       .  S
C659        F664   1.368       .  S
C659        F665   1.382       .  S
C662        F666   1.370       .  S
C662        F667   1.382       .  S
C662        F668   1.384       .  S
C669        C670   1.406       .  A
C669        C674   1.421       .  A
C669        H676   1.083   1_556  S
C670        C671   1.421       .  A
C671        C678   1.514       .  S
C671        C672   1.436       .  A
C672        C673   1.416       .  A
C672        H677   1.083       .  S
C673        C674   1.425       .  A
C675        F679   1.384       .  S
C675        F680   1.377       .  S
C675        F681   1.379       .  S
C678        F682   1.380       .  S
C678        F683   1.384       .  S
C678        F684   1.369       .  S
C685        C686   1.400       .  A
C685        C690   1.431       .  A
C685        H692   1.085       .  S
C686       C1563   1.429       .  A
C687        C694   1.505       .  S
C687       C1562   1.430       .  A
C687        C688   1.420       .  A
C688        C689   1.409       .  A
C688        H693   1.085       .  S
C689       C1566   1.442   1_545  A
C690        C691   1.503       .  S
C690       C1565   1.442       .  A
C691        F695   1.377       .  S
C691        F696   1.373       .  S
C691        F697   1.380       .  S
C694        F698   1.382       .  S
C694        F699   1.370       .  S
C694        F700   1.384       .  S
C701        C702   1.418       .  A
C701        C706   1.437       .  A
C701        H708   1.082       .  S
C702        C703   1.438       .  A
C703        C710   1.528       .  S
C703        C704   1.408       .  A
C704        C705   1.400       .  A
C704        H709   1.086       .  S
C705       C1413   1.520       .  S
C705        C706   1.421       .  A
C706       C1583   1.511       .  S
C707       C1582   1.511   1_545  S
C707        F711   1.381       .  S
C707        F712   1.382       .  S
C707        F713   1.383   1_545  S
C710        F714   1.373       .  S
C710        F715   1.384       .  S
C710        F716   1.384       .  S
C717        C718   1.419   1_455  A
C717        C722   1.439       .  A
C717        H724   1.082       .  S
C718       C2471   1.427       .  A
C719        C726   1.535       .  S
C719       C2470   1.427       .  A
C719        C720   1.399       .  A
C720       C2473   1.412       .  A
C720        H725   1.077       .  S
C721       C2472   1.412   1_455  A
C721        C722   1.425       .  A
C722        C723   1.515       .  S
C723        F727   1.379       .  S
C723        F728   1.381       .  S
C723        F729   1.374       .  S
C726        F730   1.381       .  S
C726        F731   1.377       .  S
C726        F732   1.383       .  S
C733        C734   1.405       .  A
C733        C738   1.430       .  A
C733        H740   1.078       .  S
C734        C735   1.412       .  A
C735       C2494   1.504       .  S
C735        C736   1.424       .  A
C736        C737   1.413       .  A
C736       H2493   1.084       .  S
C737        C738   1.427       .  A
C738        C739   1.501       .  S
C739        F743   1.385       .  S
C739        F744   1.357       .  S
C739        F745   1.383       .  S
H741       C2488   1.084       .  S
C742       C2487   1.504       .  S
C742        F746   1.384       .  S
C742        F747   1.370       .  S
C742        F748   1.377       .  S
C749        C750   1.385       .  A
C749        C754   1.402       .  A
C749        H756   1.078       .  S
C750        C751   1.371       .  A
C751        C758   1.507       .  S
C751        C752   1.382       .  A
C752        C753   1.448       .  A
C752        H757   1.074       .  S
C753        C754   1.427       .  A
C754        C755   1.536       .  S
C755       F1635   1.372   1_545  S
C755        F760   1.378       .  S
C755        F761   1.365       .  S
C758        F762   1.383       .  S
C758        F763   1.385       .  S
C758        F764   1.383       .  S
F759       C1631   1.373       .  S
C765        C766   1.409       .  A
C765        C770   1.380       .  A
C765        H772   1.068       .  S
C766        C767   1.474       .  A
C767        C774   1.556       .  S
C767        C768   1.365       .  A
C768        C769   1.368       .  A
C768        H773   1.091       .  S
C769        C770   1.392       .  A
C770        C771   1.513       .  S
C771        F775   1.383       .  S
C771        F776   1.383       .  S
C771        F777   1.382       .  S
C774        F778   1.383       .  S
C774        F779   1.366       .  S
C774        F780   1.378       .  S
C781        C782   1.403       .  A
C781        C786   1.383       .  A
C782        C783   1.412       .  A
C783        C790   1.528       .  S
C783        C784   1.400       .  A
C784        C785   1.421       .  A
C784        H789   1.080       .  S
C785        C786   1.422       .  A
C786        C787   1.521       .  S
C787        F792   1.382       .  S
C790        F794   1.380       .  S
C790        F795   1.376       .  S
C790        F796   1.382       .  S
C797        C798   1.403       .  A
C797        C802   1.389       .  A
C797        H804   1.087       .  S
C798        C799   1.387       .  A
C799       C2558   1.523   1_455  S
C799        C800   1.354       .  A
C800        C801   1.425       .  A
C800        H805   1.081       .  S
C801        C802   1.399       .  A
C802        C803   1.515       .  S
C803       F1683   1.383   1_545  S
C803        F808   1.368       .  S
C803        F809   1.380       .  S
C806       C2551   1.523       .  S
C806        F810   1.377       .  S
C806        F811   1.381       .  S
C806        F812   1.382       .  S
F807       C1679   1.383       .  S
C813        C814   1.414       .  A
C813        C818   1.410       .  A
C813        H820   1.076       .  S
C814        C815   1.407       .  A
C815        C822   1.514       .  S
C815        C816   1.394       .  A
C816        C817   1.407       .  A
C816        H821   1.074       .  S
C817        C818   1.414       .  A
C818        C819   1.514       .  S
C819       F1699   1.384       .  S
C819       F1700   1.381       .  S
C819       F1701   1.380       .  S
C822        F826   1.381       .  S
C822        F827   1.380       .  S
C822        F828   1.377       .  S
F823       C1695   1.384   1_545  S
F824       C1695   1.381   1_545  S
F825       C1695   1.380   1_545  S
C829        C830   1.403       .  A
C829        C834   1.379       .  A
C829        H836   1.063       .  S
C830        C831   1.440       .  A
C831        C838   1.523       .  S
C831        C832   1.410       .  A
C832        C833   1.397       .  A
C832        H837   1.086       .  S
C833        C834   1.402       .  A
C834        C835   1.516       .  S
C835        F839   1.382       .  S
C835        F840   1.380       .  S
C835        F841   1.366       .  S
C838        F842   1.379       .  S
C838        F843   1.366       .  S
C838        F844   1.384       .  S
C845        C846   1.422       .  A
C845        C850   1.381       .  A
C845        H852   1.070       .  S
C846        C847   1.457       .  A
C847        C854   1.532       .  S
C847        C848   1.403       .  A
C848        C849   1.391       .  A
C848        H853   1.085       .  S
C849        C850   1.391       .  A
C850        C851   1.517       .  S
C851        F855   1.381       .  S
C851        F856   1.379       .  S
C851       F1733   1.383       .  S
C854        F858   1.381       .  S
C854        F859   1.370       .  S
C854        F860   1.382       .  S
F857       C1727   1.383       .  S
C861        C862   1.405       .  A
C861        C866   1.388       .  A
C861        H868   1.082       .  S
C862        C863   1.436       .  A
C863        C870   1.525       .  S
C863        C864   1.412       .  A
C864        C865   1.402       .  A
C864        H869   1.079       .  S
C865        C866   1.409       .  A
C866        C867   1.513       .  S
C867        F871   1.377       .  S
C867        F872   1.385       .  S
C867        F873   1.377       .  S
C870        F874   1.380       .  S
C870        F875   1.352       .  S
C870        F876   1.377       .  S
C877       C1252   1.569       .  S
C877       C1268   1.549       .  S
C877       C1284   1.578       .  S
C877       C1303   1.607       .  S
C878       C1191   1.542       .  S
C878       C1204   1.556       .  S
C878       C1223   1.570       .  S
C878       C1239   1.503       .  S
O879        C887   1.258       .  A
O879      Co2651   1.987       .  S
O880        C888   1.258       .  A
O881        C889   1.327       .  A
O881       Co901   2.192       .  S
O882        C890   1.266       .  A
O882       Co902   1.923       .  S
O883       C1327   1.256       .  A
O883       Co900   1.868       .  S
O884        C890   1.315       .  A
O884      Co1775   2.173       .  S
O885       C1326   1.275       .  A
O885       Co902   2.031       .  S
O886        C887   1.284       .  A
O886       Co901   1.934       .  S
C887       C1255   1.459       .  S
C888       O1323   1.275       .  A
C888       C1095   1.515       .  S
C889       O1321   1.256       .  A
C889       C1578   1.518       .  S
C890       C1175   1.537       .  S
O891        C904   1.285       .  A
O892       C2657   1.308       .  A
O892       Co900   2.142       .  S
O893        C906   1.271       .  A
O893      Co2653   2.021   1_455  S
O894        C907   1.260   1_556  A
O894      Co3092   1.898       .  S
O895       C2659   1.243       .  A
O896        C906   1.271       .  A
O896       Co899   2.034       .  S
O897        C904   1.317       .  A
O897      Co2654   2.163       .  S
O898       C3095   1.254       .  A
O898       Co901   1.884       .  S
Co899      O2631   1.987   1_455  S
Co899      O1760   2.174   1_465  S
Co899      O2655   2.088   1_455  S
Co900      O1341   1.991   1_554  S
Co901      O2645   2.021       .  S
Co901       O903   2.084       .  S
Co902      O3084   1.897       .  S
Co902      O2649   2.163       .  S
O903      Co2651   2.088       .  S
O903      Co1338   1.991       .  S
C904       C1127   1.548       .  S
C905       O2644   1.308       .  A
C905       O3088   1.254       .  A
C905       C1156   1.515       .  S
C906       C1108   1.525       .  S
C907       O2647   1.243   1_455  A
C907       C1236   1.383       .  S
O908        C916   1.243       .  A
O908       Co928   1.937       .  S
O909        C917   1.277       .  A
O909       Co929   2.034       .  S
O910        C918   1.268       .  A
O910       Co930   2.155       .  S
O911        C919   1.249       .  A
O911       Co931   1.951       .  S
O912        C918   1.231       .  A
O912       Co929   2.003       .  S
O913        C919   1.288       .  A
O913       Co928   2.101       .  S
O914        C917   1.262       .  A
O914       Co931   1.970       .  S
O915        C916   1.288       .  A
O915       Co930   1.928       .  S
C916       C1271   1.460       .  S
C917       C1060   1.556       .  S
C918       C1047   1.550       .  S
C919       C1111   1.527       .  S
O920        C933   1.232       .  A
O920      Co1366   1.928   1_554  S
O921        C934   1.309       .  A
O921       Co929   2.126       .  S
O922        C935   1.265       .  A
O922       Co930   2.026       .  S
O923        C936   1.257       .  A
O923      Co1369   1.961   1_554  S
O924       C1374   1.241       .  A
O924       Co929   1.923       .  S
O925        C935   1.288       .  A
O925       Co928   2.086       .  S
O926        C933   1.275       .  A
O926      Co1369   2.086   1_554  S
O927        C934   1.263       .  A
O927       Co930   1.910       .  S
Co928      O1358   1.928       .  S
Co928       O932   2.208       .  S
Co929       O932   2.112       .  S
Co930       O932   2.184       .  S
Co931      O1361   1.962       .  S
Co931      O1364   2.087       .  S
Co931       O932   2.136       .  S
C933       C1028   1.525       .  S
C934       C1092   1.534       .  S
C935       C1517   1.550       .  S
C936       O1362   1.241       .  A
C936       C1220   1.440       .  S
O937        C945   1.254       .  A
O937       Co957   2.005       .  S
O938        C946   1.293       .  A
O938       Co958   2.113       .  S
O939        C947   1.261       .  A
O939       Co959   2.019       .  S
O940        C948   1.244       .  A
O940       Co960   1.923       .  S
O941        C947   1.255       .  A
O941       Co958   1.974       .  S
O942        C948   1.313       .  A
O942       Co957   2.186       .  S
O943       C2698   1.257       .  A
O943       Co960   1.945       .  S
O944        C945   1.223       .  A
O944      Co2711   1.922       .  S
C945       C1300   1.453       .  S
C946       O2695   1.257   1_455  A
C946       C1159   1.532       .  S
C947       C1012   1.502       .  S
C948       C1076   1.545       .  S
O949        C962   1.261       .  A
O949       Co957   1.902       .  S
O950        C963   1.280       .  A
O950       Co958   2.041       .  S
O951        C964   1.292       .  A
O951      Co2711   2.092       .  S
O952        C965   1.242       .  A
O952      Co2712   1.959   1_455  S
O953        C965   1.229       .  A
O953       Co958   1.878       .  S
O954        C964   1.275       .  A
O954       Co957   2.014       .  S
O955        C962   1.312       .  A
O955       Co960   2.153       .  S
O956        C963   1.269       .  A
O956       Co959   2.003       .  S
Co957       O961   2.116       .  S
Co958      O2713   2.041       .  S
Co959      O2696   1.922   1_455  S
Co959      O2703   2.092   1_455  S
Co959      O2713   1.977       .  S
Co960      O2704   1.959       .  S
Co960       O961   2.052       .  S
O961      Co2710   2.041       .  S
O961      Co2711   1.977       .  S
C962        C999   1.519       .  S
C963       C1063   1.538       .  S
C964       C1172   1.543       .  S
C965       C1207   1.394       .  S
O966        C974   1.249       .  A
O966       Co986   1.925   1_565  S
O967       Co987   1.952       .  S
O968        C976   1.255       .  A
O968       Co988   2.083       .  S
O969        C977   1.252       .  A
O969       Co989   1.857       .  S
O970        C976   1.251       .  A
O970       Co987   2.002       .  S
O971        C977   1.321       .  A
O972        C975   1.303       .  A
O972       Co989   2.082       .  S
O973        C974   1.271       .  A
O973       Co988   1.971       .  S
C974       C1287   1.439       .  S
C976       C1031   1.541       .  S
C977        C996   1.498       .  S
O978        C991   1.282       .  A
O979        C992   1.299       .  A
O979       Co987   2.109       .  S
O980        C993   1.262       .  A
O980       Co988   1.991       .  S
O981        C994   1.245       .  A
O981       Co989   1.908       .  S
O982        C994   1.248       .  A
O983        C993   1.298   1_545  A
O983       Co986   2.087       .  S
O984        C991   1.281       .  A
O984       Co989   2.148       .  S
O985        C992   1.252       .  A
O985       Co988   1.942       .  S
Co986       O990   1.998   1_545  S
Co987       O990   1.937       .  S
Co988       O990   2.103       .  S
C991       C1044   1.569       .  S
C992       C1015   1.505       .  S
C993       C1124   1.533   1_565  S
C994       C1188   1.451       .  S
C995        C996   1.375       .  A
C995       C1000   1.400       .  A
C995       H1002   1.083       .  S
C996        C997   1.435       .  A
C997       C1004   1.517       .  S
C997        C998   1.432       .  A
C998        C999   1.407       .  A
C998       H1003   1.083       .  S
C999       C1000   1.421       .  A
C1000      C1001   1.480       .  S
C1001      F1005   1.373       .  S
C1001      F1006   1.380       .  S
C1001      F1007   1.381       .  S
C1004      F1008   1.382       .  S
C1004      F1009   1.384       .  S
C1004      F1010   1.384       .  S
C1011      C1012   1.397       .  A
C1011      C1016   1.400       .  A
C1011      H1018   1.077       .  S
C1012      C1013   1.428       .  A
C1013      C1020   1.515       .  S
C1013      C1014   1.422       .  A
C1014      C1015   1.408       .  A
C1014      H1019   1.078       .  S
C1015      C1016   1.432       .  A
C1016      C1017   1.534       .  S
C1017      F1021   1.385       .  S
C1017      F1022   1.382       .  S
C1017      F1023   1.367       .  S
C1020      F1024   1.383       .  S
C1020      F1025   1.376       .  S
C1020      F1026   1.383       .  S
C1027      C1028   1.406       .  A
C1027      C1032   1.432       .  A
C1027      H1034   1.083       .  S
C1028      C1029   1.439       .  A
C1029      C1036   1.527       .  S
C1029      C1030   1.417       .  A
C1030      C1031   1.403       .  A
C1030      H1035   1.075       .  S
C1031      C1032   1.434       .  A
C1032      C1033   1.508       .  S
C1033      F1037   1.385       .  S
C1033      F1038   1.369       .  S
C1033      F1039   1.383       .  S
C1036      F1040   1.374       .  S
C1036      F1041   1.382       .  S
C1036      F1042   1.376       .  S
C1043      C1044   1.428       .  A
C1043      C1048   1.452       .  A
C1043      H1050   1.082       .  S
C1044      C1045   1.434       .  A
C1045      C1052   1.511       .  S
C1045      C1046   1.423       .  A
C1046      C1047   1.400       .  A
C1046      H1051   1.078       .  S
C1047      C1048   1.428       .  A
C1048      C1049   1.511       .  S
C1049      F1053   1.384       .  S
C1049      F1054   1.381       .  S
C1049      F1055   1.383       .  S
C1052      F1056   1.379       .  S
C1052      F1057   1.375       .  S
C1052      F1058   1.382       .  S
C1059      C1060   1.414       .  A
C1059      C1064   1.411       .  A
C1059      H1066   1.077       .  S
C1060      C1061   1.438       .  A
C1061      C1068   1.502       .  S
C1061      C1062   1.437       .  A
C1062      C1063   1.412       .  A
C1062      H1067   1.084       .  S
C1063      C1064   1.430       .  A
C1064      C1065   1.521       .  S
C1065      F1069   1.379       .  S
C1065      F1070   1.373       .  S
C1065      F1071   1.371       .  S
C1068      F1072   1.373       .  S
C1068      F1073   1.379       .  S
C1068      F1074   1.384       .  S
C1075      C1076   1.401       .  A
C1075      C1080   1.430       .  A
C1075      H1082   1.083       .  S
C1076      C1077   1.445       .  A
C1077      C1084   1.524       .  S
C1077      C1078   1.434       .  A
C1078      C1079   1.406       .  A
C1078      H1083   1.082       .  S
C1079      C1373   1.550       .  S
C1079      C1080   1.438       .  A
C1080      C1081   1.503       .  S
C1081      F1085   1.385       .  S
C1081      F1086   1.381       .  S
C1081      F1087   1.370       .  S
C1084      F1088   1.382       .  S
C1084      F1089   1.379       .  S
C1084      F1090   1.385       .  S
C1091      C1092   1.417       .  A
C1091      C1534   1.397       .  A
C1091      H1536   1.083       .  S
C1092      C1093   1.422       .  A
C1093      C1100   1.503       .  S
C1093      C1094   1.431       .  A
C1094      C1533   1.417       .  A
C1094      H1099   1.081       .  S
C1095      C1532   1.417       .  A
C1095      C1096   1.422       .  A
C1096      C1097   1.518   1_556  S
C1096      C1529   1.397       .  A
C1097      F1101   1.386   1_554  S
C1097      F1102   1.368   1_554  S
C1097      F1103   1.382       .  S
H1098      C1529   1.083   1_554  S
C1100      F1104   1.370       .  S
C1100      F1105   1.382       .  S
C1100      F1106   1.384       .  S
C1107      C1108   1.406       .  A
C1107      C1112   1.421       .  A
C1107      H1114   1.083       .  S
C1108      C1109   1.421       .  A
C1109      C1116   1.514       .  S
C1109      C1110   1.436       .  A
C1110      C1111   1.416       .  A
C1110      H1115   1.083       .  S
C1111      C1112   1.425       .  A
C1112      C1551   1.508       .  S
C1113      C1550   1.508   1_554  S
C1113      F1117   1.384       .  S
C1113      F1118   1.377       .  S
C1113      F1119   1.379       .  S
C1116      F1120   1.380       .  S
C1116      F1121   1.384       .  S
C1116      F1122   1.369       .  S
C1123      C1124   1.400   1_565  A
C1123      C1128   1.430       .  A
C1123      H1130   1.085       .  S
C1125      C1132   1.504       .  S
C1125      C1126   1.419       .  A
C1126      C1127   1.408       .  A
C1126      H1131   1.085       .  S
C1128      C1129   1.503       .  S
C1129      F1133   1.376       .  S
C1129      F1134   1.373       .  S
C1129      F1135   1.380   1_565  S
C1132      F1136   1.382       .  S
C1132      F1137   1.370       .  S
C1132      F1138   1.384       .  S
C1139      C1140   1.418       .  A
C1139      C1144   1.437       .  A
C1139      H1146   1.082       .  S
C1140      C1327   1.518       .  S
C1140      C1141   1.438       .  A
C1141      C1148   1.528       .  S
C1141      C1142   1.408       .  A
C1142      C1143   1.400       .  A
C1142      H1147   1.086       .  S
C1143      C1144   1.421       .  A
C1145      F1149   1.381       .  S
C1145      F1150   1.382       .  S
C1145      F1151   1.383       .  S
C1148      F1152   1.373       .  S
C1148      F1153   1.384       .  S
C1148      F1154   1.384       .  S
C1155      C1156   1.419   1_455  A
C1155      C1160   1.440       .  A
C1155      H1162   1.082       .  S
C1156      C2909   1.427       .  A
C1157      C1164   1.535       .  S
C1157      C2908   1.427       .  A
C1157      C1158   1.399       .  A
C1158      C2911   1.412       .  A
C1158      H1163   1.077       .  S
C1159      C2910   1.412   1_455  A
C1159      C1160   1.425       .  A
C1160      C1161   1.514       .  S
C1161      F1165   1.378       .  S
C1161      F1166   1.381       .  S
C1161      F1167   1.374       .  S
C1164      F1168   1.381       .  S
C1164      F1169   1.377       .  S
C1164      F1170   1.383       .  S
C1171      C1172   1.405       .  A
C1171      C1176   1.430       .  A
C1171      H1178   1.078       .  S
C1172      C1173   1.413       .  A
C1173      C2932   1.504       .  S
C1173      C1174   1.425       .  A
C1174      C1175   1.413       .  A
C1174      H2931   1.084       .  S
C1175      C1176   1.427       .  A
C1176      C1177   1.500       .  S
C1177      F1181   1.385       .  S
C1177      F1182   1.355       .  S
C1177      F1183   1.383       .  S
H1179      C2926   1.084       .  S
C1180      C2925   1.503       .  S
C1180      F1184   1.384       .  S
C1180      F1185   1.370       .  S
C1180      F1186   1.377       .  S
C1187      C1188   1.383       .  A
C1187      C1192   1.403       .  A
C1187      H1194   1.076       .  S
C1188      C1189   1.370       .  A
C1189      C1196   1.507       .  S
C1189      C1190   1.383       .  A
C1190      C1191   1.450       .  A
C1190      H1195   1.075       .  S
C1191      C1192   1.428       .  A
C1192      C1193   1.537       .  S
C1193      F1198   1.378       .  S
C1193      F1199   1.365       .  S
C1196      F1200   1.382       .  S
C1196      F1201   1.385       .  S
C1196      F1202   1.383       .  S
C1203      C1204   1.409       .  A
C1203      C1208   1.380       .  A
C1203      H1210   1.068       .  S
C1204      C1205   1.474       .  A
C1205      C1212   1.556       .  S
C1205      C1206   1.363       .  A
C1206      C1207   1.368       .  A
C1206      H1211   1.091       .  S
C1207      C1208   1.391       .  A
C1208      C1209   1.513       .  S
C1209      F1213   1.383       .  S
C1209      F1214   1.383       .  S
C1209      F1215   1.382       .  S
C1212      F1216   1.383       .  S
C1212      F1217   1.366       .  S
C1212      F1218   1.378       .  S
C1219      C1220   1.403       .  A
C1219      C1224   1.384       .  A
C1219      H1664   1.083       .  S
C1220      C1221   1.412       .  A
C1221      C1228   1.527       .  S
C1221      C1222   1.400       .  A
C1222      C1223   1.421       .  A
C1222      H1227   1.080       .  S
C1223      C1224   1.422       .  A
C1224      C1225   1.520       .  S
C1225      F1667   1.386   1_554  S
C1225      F1230   1.382       .  S
C1225      F1669   1.377   1_554  S
H1226      C1657   1.082       .  S
C1228      F1232   1.380       .  S
C1228      F1233   1.376       .  S
C1228      F1234   1.382       .  S
F1229      C1663   1.386       .  S
F1231      C1663   1.378       .  S
C1235      C1236   1.402       .  A
C1235      C1240   1.389       .  A
C1235      H1242   1.086       .  S
C1236      C1237   1.386       .  A
C1237      C2996   1.524   1_455  S
C1237      C1238   1.354       .  A
C1238      C1239   1.426       .  A
C1238      H1243   1.080       .  S
C1239      C1240   1.402       .  A
C1240      C1241   1.517       .  S
C1241      F1246   1.368       .  S
C1241      F1247   1.380   1_554  S
C1244      C2989   1.524       .  S
C1244      F1248   1.377       .  S
C1244      F1249   1.381       .  S
C1244      F1250   1.382       .  S
C1251      C1252   1.414       .  A
C1251      C1256   1.410       .  A
C1251      H1258   1.076       .  S
C1252      C1253   1.407       .  A
C1253      C1260   1.514       .  S
C1253      C1254   1.395       .  A
C1254      C1255   1.407       .  A
C1254      H1259   1.074       .  S
C1255      C1256   1.414       .  A
C1256      C1257   1.514       .  S
C1260      F1264   1.381       .  S
C1260      F1265   1.380       .  S
C1260      F1266   1.377       .  S
C1267      C1268   1.403       .  A
C1267      C1272   1.379       .  A
C1267      H1274   1.066       .  S
C1268      C1269   1.440       .  A
C1269      C1276   1.523       .  S
C1269      C1270   1.410       .  A
C1270      C1271   1.397       .  A
C1270      H1275   1.086       .  S
C1271      C1272   1.402       .  A
C1272      C1273   1.516       .  S
C1273      F1277   1.382       .  S
C1273      F1278   1.380       .  S
C1273      F1279   1.366       .  S
C1276      F1280   1.379       .  S
C1276      F1281   1.366       .  S
C1276      F1282   1.384       .  S
C1283      C1284   1.422       .  A
C1283      C1288   1.381       .  A
C1283      H1290   1.070       .  S
C1284      C1285   1.457       .  A
C1285      C1292   1.532       .  S
C1285      C1286   1.403       .  A
C1286      C1287   1.390       .  A
C1286      H1291   1.085       .  S
C1287      C1288   1.391       .  A
C1288      C1289   1.518       .  S
C1289      F1293   1.381       .  S
C1289      F1294   1.379       .  S
C1292      F1296   1.381       .  S
C1292      F1297   1.370       .  S
C1292      F1298   1.382       .  S
C1299      C1300   1.405       .  A
C1299      C1304   1.388       .  A
C1299      H1306   1.082       .  S
C1300      C1301   1.436       .  A
C1301      C1308   1.525       .  S
C1301      C1302   1.412       .  A
C1302      C1303   1.402       .  A
C1302      H1307   1.079       .  S
C1303      C1304   1.409       .  A
C1304      C1305   1.513       .  S
C1305      F1309   1.378       .  S
C1305      F1310   1.385       .  S
C1305      F1311   1.377       .  S
C1308      F1312   1.380       .  S
C1308      F1313   1.352       .  S
C1308      F1314   1.377       .  S
C1315      C1690   1.569       .  S
C1315      C1706   1.549       .  S
C1315      C1722   1.578       .  S
C1315      C1741   1.607       .  S
C1316      C1629   1.542       .  S
C1316      C1642   1.554       .  S
C1316      C1661   1.571       .  S
C1316      C1677   1.506       .  S
O1317      C1325   1.258       .  A
O1317     Co3089   1.987       .  S
O1318      C1326   1.258       .  A
O1319      C1327   1.327   1_556  A
O1319     Co1339   2.192       .  S
O1320      C1328   1.266       .  A
O1320     Co1340   1.921       .  S
O1321     Co1338   1.868       .  S
O1322      C1328   1.315       .  A
O1322     Co2213   2.173       .  S
O1323     Co1340   2.033       .  S
O1324      C1325   1.284       .  A
O1324     Co1339   1.934       .  S
C1325      C1693   1.458       .  S
C1326      C1533   1.515       .  S
C1328      C1613   1.535       .  S
O1329      C1342   1.285       .  A
O1330      C3095   1.309       .  A
O1330     Co1338   2.142       .  S
O1331      C1344   1.271       .  A
O1331     Co3091   2.021   1_455  S
O1332      C1345   1.260       .  A
O1332     Co2654   1.897       .  S
O1333      C3097   1.243       .  A
O1334      C1344   1.271       .  A
O1334     Co1337   2.033       .  S
O1335      C1342   1.318       .  A
O1335     Co3092   2.166       .  S
O1336      C2657   1.254       .  A
O1336     Co1339   1.886   1_554  S
Co1337     O3069   1.987   1_455  S
Co1337     O2198   2.173   1_465  S
Co1337     O3093   2.087   1_455  S
Co1339     O3083   2.021       .  S
Co1339     O1341   2.084       .  S
Co1340     O2646   1.898       .  S
Co1340     O3087   2.166       .  S
O1341     Co3089   2.087       .  S
C1342      C1565   1.548       .  S
C1343      O3082   1.309       .  A
C1343      O2650   1.254       .  A
C1343      C1594   1.514       .  S
C1344      C1546   1.524       .  S
C1345      O3085   1.243   1_455  A
C1345      C1674   1.382       .  S
O1346      C1354   1.243       .  A
O1346     Co1366   1.938       .  S
O1347      C1355   1.277       .  A
O1347     Co1367   2.034       .  S
O1348      C1356   1.268       .  A
O1348     Co1368   2.154       .  S
O1349      C1357   1.249       .  A
O1349     Co1369   1.951       .  S
O1350      C1356   1.231       .  A
O1350     Co1367   2.003       .  S
O1351      C1357   1.288       .  A
O1351     Co1366   2.102       .  S
O1352      C1355   1.261       .  A
O1352     Co1369   1.968       .  S
O1353      C1354   1.288       .  A
O1353     Co1368   1.929       .  S
C1354      C1709   1.460       .  S
C1355      C1498   1.557       .  S
C1356      C1485   1.550       .  S
C1357      C1549   1.527       .  S
O1358      C1371   1.233       .  A
O1359      C1372   1.309       .  A
O1359     Co1367   2.125       .  S
O1360      C1373   1.265       .  A
O1360     Co1368   2.027   1_554  S
O1361      C1374   1.257       .  A
O1362     Co1367   1.923   1_554  S
O1363      C1373   1.287   1_556  A
O1363     Co1366   2.086       .  S
O1364      C1371   1.275       .  A
O1365      C1372   1.263       .  A
O1365     Co1368   1.910       .  S
Co1366     O1370   2.208       .  S
Co1367     O1370   2.112       .  S
Co1368     O1370   2.185       .  S
Co1369     O1370   2.135       .  S
C1371      C1466   1.526       .  S
C1372      C1530   1.534       .  S
C1374      C1658   1.441       .  S
O1375      C1383   1.254       .  A
O1375     Co1395   2.005       .  S
O1376      C1384   1.293       .  A
O1376     Co1396   2.112       .  S
O1377      C1385   1.261       .  A
O1377     Co1397   2.020       .  S
O1378      C1386   1.244       .  A
O1378     Co1398   1.923       .  S
O1379      C1385   1.255       .  A
O1379     Co1396   1.973       .  S
O1380      C1386   1.313       .  A
O1380     Co1395   2.186       .  S
O1381      C3136   1.257       .  A
O1381     Co1398   1.944       .  S
O1382      C1383   1.223       .  A
O1382     Co3149   1.923       .  S
C1383      C1738   1.453       .  S
C1384      O3133   1.257   1_455  A
C1384      C1597   1.532       .  S
C1385      C1450   1.502       .  S
C1386      C1514   1.545       .  S
O1387      C1400   1.262       .  A
O1387     Co1395   1.903       .  S
O1388      C1401   1.279       .  A
O1388     Co1396   2.041       .  S
O1389      C1402   1.292       .  A
O1389     Co3149   2.091       .  S
O1390      C1403   1.242       .  A
O1390     Co3150   1.961   1_455  S
O1391      C1403   1.228       .  A
O1391     Co1396   1.875       .  S
O1392      C1402   1.274       .  A
O1392     Co1395   2.012       .  S
O1393      C1400   1.312       .  A
O1393     Co1398   2.153       .  S
O1394      C1401   1.269       .  A
O1394     Co1397   2.004       .  S
Co1395     O1399   2.116       .  S
Co1396     O3151   2.039       .  S
Co1397     O3134   1.923   1_455  S
Co1397     O3141   2.091   1_455  S
Co1397     O3151   1.977       .  S
Co1398     O3142   1.961       .  S
Co1398     O1399   2.053       .  S
O1399     Co3148   2.039       .  S
O1399     Co3149   1.977       .  S
C1400      C1437   1.520       .  S
C1401      C1501   1.538       .  S
C1402      C1610   1.542       .  S
C1403      C1645   1.395       .  S
O1404      C1412   1.249       .  A
O1404     Co1424   1.925   1_565  S
O1405     Co1425   1.951       .  S
O1406      C1414   1.256       .  A
O1406     Co1426   2.084       .  S
O1407      C1415   1.251       .  A
O1407     Co1427   1.857       .  S
O1408      C1414   1.251       .  A
O1408     Co1425   2.002       .  S
O1409      C1415   1.321       .  A
O1410      C1413   1.303       .  A
O1410     Co1427   2.082       .  S
O1411      C1412   1.271       .  A
O1411     Co1426   1.970       .  S
C1412      C1725   1.439       .  S
C1414      C1469   1.542       .  S
C1415      C1434   1.499       .  S
O1416      C1429   1.281       .  A
O1417      C1430   1.299       .  A
O1417     Co1425   2.107       .  S
O1418      C1431   1.262       .  A
O1418     Co1426   1.990       .  S
O1419      C1432   1.245       .  A
O1419     Co1427   1.907       .  S
O1420      C1432   1.248       .  A
O1421      C1431   1.298   1_545  A
O1421     Co1424   2.087       .  S
O1422      C1429   1.280       .  A
O1422     Co1427   2.148       .  S
O1423      C1430   1.252       .  A
O1423     Co1426   1.942       .  S
Co1424     O1428   1.997   1_545  S
Co1425     O1428   1.938       .  S
Co1426     O1428   2.102       .  S
C1429      C1482   1.569       .  S
C1430      C1453   1.503       .  S
C1431      C1562   1.533   1_565  S
C1432      C1626   1.451       .  S
C1433      C1434   1.376       .  A
C1433      C1438   1.401       .  A
C1433      H1440   1.083       .  S
C1434      C1435   1.435       .  A
C1435      C1442   1.517       .  S
C1435      C1436   1.431       .  A
C1436      C1437   1.407       .  A
C1436      H1441   1.083       .  S
C1437      C1438   1.421       .  A
C1438      C1439   1.479       .  S
C1439      F1443   1.374       .  S
C1439      F1444   1.380       .  S
C1439      F1445   1.381       .  S
C1442      F1446   1.382       .  S
C1442      F1447   1.384       .  S
C1442      F1448   1.384       .  S
C1449      C1450   1.397       .  A
C1449      C1454   1.399       .  A
C1449      H1456   1.077       .  S
C1450      C1451   1.428       .  A
C1451      C1458   1.515       .  S
C1451      C1452   1.422       .  A
C1452      C1453   1.408       .  A
C1452      H1457   1.079       .  S
C1453      C1454   1.432       .  A
C1454      C1455   1.534       .  S
C1455      F1459   1.385       .  S
C1455      F1460   1.382       .  S
C1455      F1461   1.367       .  S
C1458      F1462   1.383       .  S
C1458      F1463   1.376       .  S
C1458      F1464   1.383       .  S
C1465      C1466   1.407       .  A
C1465      C1470   1.433       .  A
C1465      H1472   1.083       .  S
C1466      C1467   1.439       .  A
C1467      C1474   1.527       .  S
C1467      C1468   1.417       .  A
C1468      C1469   1.403       .  A
C1468      H1473   1.075       .  S
C1469      C1470   1.435       .  A
C1470      C1471   1.508       .  S
C1471      F1475   1.385       .  S
C1471      F1476   1.369       .  S
C1471      F1477   1.383       .  S
C1474      F1478   1.374       .  S
C1474      F1479   1.382       .  S
C1474      F1480   1.376       .  S
C1481      C1482   1.428       .  A
C1481      C1486   1.452       .  A
C1481      H1488   1.082       .  S
C1482      C1483   1.434       .  A
C1483      C1490   1.511       .  S
C1483      C1484   1.423       .  A
C1484      C1485   1.400       .  A
C1484      H1489   1.078       .  S
C1485      C1486   1.428       .  A
C1486      C1487   1.511       .  S
C1487      F1491   1.384       .  S
C1487      F1492   1.381       .  S
C1487      F1493   1.383       .  S
C1490      F1494   1.379       .  S
C1490      F1495   1.375       .  S
C1490      F1496   1.382       .  S
C1497      C1498   1.414       .  A
C1497      C1502   1.411       .  A
C1497      H1504   1.077       .  S
C1498      C1499   1.439       .  A
C1499      C1506   1.502       .  S
C1499      C1500   1.437       .  A
C1500      C1501   1.412       .  A
C1500      H1505   1.084       .  S
C1501      C1502   1.430       .  A
C1502      C1503   1.520       .  S
C1503      F1507   1.379       .  S
C1503      F1508   1.373       .  S
C1503      F1509   1.371       .  S
C1506      F1510   1.373       .  S
C1506      F1511   1.379       .  S
C1506      F1512   1.384       .  S
C1513      C1514   1.401       .  A
C1513      C1518   1.430       .  A
C1513      H1520   1.083       .  S
C1514      C1515   1.445       .  A
C1515      C1522   1.524       .  S
C1515      C1516   1.434       .  A
C1516      C1517   1.407       .  A
C1516      H1521   1.082       .  S
C1517      C1518   1.438       .  A
C1518      C1519   1.503       .  S
C1519      F1523   1.385       .  S
C1519      F1524   1.380       .  S
C1519      F1525   1.370       .  S
C1522      F1526   1.382       .  S
C1522      F1527   1.379       .  S
C1522      F1528   1.385       .  S
C1529      C1530   1.416       .  A
C1530      C1531   1.422       .  A
C1531      C1538   1.502       .  S
C1531      C1532   1.431       .  A
C1532      H1537   1.081       .  S
C1533      C1534   1.422       .  A
C1534      C1535   1.520       .  S
C1535      F1539   1.386       .  S
C1535      F1540   1.368       .  S
C1535      F1541   1.382       .  S
C1538      F1542   1.370       .  S
C1538      F1543   1.382       .  S
C1538      F1544   1.384       .  S
C1545      C1546   1.406       .  A
C1545      C1550   1.421       .  A
C1545      H1552   1.083   1_556  S
C1546      C1547   1.421       .  A
C1547      C1554   1.514       .  S
C1547      C1548   1.436       .  A
C1548      C1549   1.416       .  A
C1548      H1553   1.083       .  S
C1549      C1550   1.425       .  A
C1551      F1555   1.384       .  S
C1551      F1556   1.377       .  S
C1551      F1557   1.379       .  S
C1554      F1558   1.380       .  S
C1554      F1559   1.384       .  S
C1554      F1560   1.368       .  S
C1561      C1562   1.400   1_565  A
C1561      C1566   1.430       .  A
C1561      H1568   1.085       .  S
C1563      C1570   1.504       .  S
C1563      C1564   1.419       .  A
C1564      C1565   1.408       .  A
C1564      H1569   1.085       .  S
C1566      C1567   1.503       .  S
C1567      F1571   1.376       .  S
C1567      F1572   1.373       .  S
C1567      F1573   1.380   1_565  S
C1570      F1574   1.383       .  S
C1570      F1575   1.370       .  S
C1570      F1576   1.384       .  S
C1577      C1578   1.418       .  A
C1577      C1582   1.437       .  A
C1577      H1584   1.082       .  S
C1578      C1579   1.438       .  A
C1579      C1586   1.528       .  S
C1579      C1580   1.408       .  A
C1580      C1581   1.400       .  A
C1580      H1585   1.086       .  S
C1581      C1582   1.421       .  A
C1583      F1587   1.381       .  S
C1583      F1588   1.382       .  S
C1583      F1589   1.383       .  S
C1586      F1590   1.373       .  S
C1586      F1591   1.384       .  S
C1586      F1592   1.384       .  S
C1593      C1594   1.418   1_455  A
C1593      C1598   1.439       .  A
C1593      H1600   1.082       .  S
C1594      C3347   1.427       .  A
C1595      C1602   1.535       .  S
C1595      C3346   1.427       .  A
C1595      C1596   1.399       .  A
C1596      C3349   1.412       .  A
C1596      H1601   1.077       .  S
C1597      C3348   1.412   1_455  A
C1597      C1598   1.425       .  A
C1598      C1599   1.514       .  S
C1599      F1603   1.378       .  S
C1599      F1604   1.381       .  S
C1599      F1605   1.374       .  S
C1602      F1606   1.381       .  S
C1602      F1607   1.377       .  S
C1602      F1608   1.383       .  S
C1609      C1610   1.405       .  A
C1609      C1614   1.430       .  A
C1609      H1616   1.078       .  S
C1610      C1611   1.412       .  A
C1611      C3370   1.504       .  S
C1611      C1612   1.424       .  A
C1612      C1613   1.413       .  A
C1612      H3369   1.084       .  S
C1613      C1614   1.427       .  A
C1614      C1615   1.500       .  S
C1615      F1619   1.385       .  S
C1615      F1620   1.357       .  S
C1615      F1621   1.383       .  S
H1617      C3364   1.084       .  S
C1618      C3363   1.504       .  S
C1618      F1622   1.384       .  S
C1618      F1623   1.370       .  S
C1618      F1624   1.377       .  S
C1625      C1626   1.382       .  A
C1625      C1630   1.403       .  A
C1625      H1632   1.075       .  S
C1626      C1627   1.370       .  A
C1627      C1634   1.506       .  S
C1627      C1628   1.382       .  A
C1628      C1629   1.450       .  A
C1628      H1633   1.076       .  S
C1629      C1630   1.429       .  A
C1630      C1631   1.537       .  S
C1631      F1636   1.378       .  S
C1631      F1637   1.365       .  S
C1634      F1638   1.382       .  S
C1634      F1639   1.385       .  S
C1634      F1640   1.383       .  S
C1641      C1642   1.410       .  A
C1641      C1646   1.381       .  A
C1641      H1648   1.068       .  S
C1642      C1643   1.473       .  A
C1643      C1650   1.556       .  S
C1643      C1644   1.362       .  A
C1644      C1645   1.368       .  A
C1644      H1649   1.091       .  S
C1645      C1646   1.391       .  A
C1646      C1647   1.513       .  S
C1647      F1651   1.383       .  S
C1647      F1652   1.383       .  S
C1647      F1653   1.382       .  S
C1650      F1654   1.383       .  S
C1650      F1655   1.366       .  S
C1650      F1656   1.378       .  S
C1657      C1658   1.403       .  A
C1657      C1662   1.385       .  A
C1658      C1659   1.411       .  A
C1659      C1666   1.527       .  S
C1659      C1660   1.400       .  A
C1660      C1661   1.422       .  A
C1660      H1665   1.079       .  S
C1661      C1662   1.423       .  A
C1662      C1663   1.519       .  S
C1663      F1668   1.381       .  S
C1666      F1670   1.380       .  S
C1666      F1671   1.376       .  S
C1666      F1672   1.382       .  S
C1673      C1674   1.401       .  A
C1673      C1678   1.389       .  A
C1673      H1680   1.086       .  S
C1674      C1675   1.386       .  A
C1675      C3434   1.527   1_455  S
C1675      C1676   1.355       .  A
C1676      C1677   1.428       .  A
C1676      H1681   1.079       .  S
C1677      C1678   1.405       .  A
C1678      C1679   1.517       .  S
C1679      F1684   1.367       .  S
C1679      F1685   1.380       .  S
C1682      C3427   1.527       .  S
C1682      F1686   1.376       .  S
C1682      F1687   1.380       .  S
C1682      F1688   1.382       .  S
C1689      C1690   1.414       .  A
C1689      C1694   1.410       .  A
C1689      H1696   1.076       .  S
C1690      C1691   1.407       .  A
C1691      C1698   1.514       .  S
C1691      C1692   1.394       .  A
C1692      C1693   1.407       .  A
C1692      H1697   1.074       .  S
C1693      C1694   1.414       .  A
C1694      C1695   1.514       .  S
C1698      F1702   1.381       .  S
C1698      F1703   1.380       .  S
C1698      F1704   1.377       .  S
C1705      C1706   1.403       .  A
C1705      C1710   1.379       .  A
C1705      H1712   1.062       .  S
C1706      C1707   1.440       .  A
C1707      C1714   1.523       .  S
C1707      C1708   1.410       .  A
C1708      C1709   1.397       .  A
C1708      H1713   1.086       .  S
C1709      C1710   1.402       .  A
C1710      C1711   1.516       .  S
C1711      F1715   1.382       .  S
C1711      F1716   1.380       .  S
C1711      F1717   1.365       .  S
C1714      F1718   1.379       .  S
C1714      F1719   1.366       .  S
C1714      F1720   1.384       .  S
C1721      C1722   1.423       .  A
C1721      C1726   1.381       .  A
C1721      H1728   1.070       .  S
C1722      C1723   1.457       .  A
C1723      C1730   1.532       .  S
C1723      C1724   1.403       .  A
C1724      C1725   1.390       .  A
C1724      H1729   1.085       .  S
C1725      C1726   1.391       .  A
C1726      C1727   1.518       .  S
C1727      F1731   1.381       .  S
C1727      F1732   1.379       .  S
C1730      F1734   1.381       .  S
C1730      F1735   1.370       .  S
C1730      F1736   1.382       .  S
C1737      C1738   1.405       .  A
C1737      C1742   1.388       .  A
C1737      H1744   1.082       .  S
C1738      C1739   1.436       .  A
C1739      C1746   1.525       .  S
C1739      C1740   1.412       .  A
C1740      C1741   1.403       .  A
C1740      H1745   1.079       .  S
C1741      C1742   1.409       .  A
C1742      C1743   1.513       .  S
C1743      F1747   1.377       .  S
C1743      F1748   1.385       .  S
C1743      F1749   1.376       .  S
C1746      F1750   1.379       .  S
C1746      F1751   1.352       .  S
C1746      F1752   1.377       .  S
C1753      C2128   1.569       .  S
C1753      C2144   1.548       .  S
C1753      C2160   1.578       .  S
C1753      C2179   1.607       .  S
C1754      C2067   1.542       .  S
C1754      C2080   1.557       .  S
C1754      C2099   1.570       .  S
C1754      C2115   1.503       .  S
O1755      C1763   1.258       .  A
O1756      C1764   1.258       .  A
O1756     Co2652   2.002   1_546  S
O1757      C1765   1.327       .  A
O1757     Co1777   2.193       .  S
O1758      C1766   1.265   1_455  A
O1758     Co1778   1.922       .  S
O1759      C2203   1.256       .  A
O1759     Co1776   1.867       .  S
O1760      C1766   1.315       .  A
O1761      C2202   1.275       .  A
O1761     Co1778   2.030   1_655  S
O1762      C1763   1.285       .  A
O1762     Co1777   1.935       .  S
C1763      C2131   1.458       .  S
C1764      O2199   1.275       .  A
C1764      C1971   1.515       .  S
C1765      O2197   1.256       .  A
C1765      C2454   1.518       .  S
C1766      C2051   1.537       .  S
O1767      C1780   1.285       .  A
O1767     Co2651   1.914   1_545  S
O1768     Co1776   2.142       .  S
O1769      C1782   1.271       .  A
O1770      C1783   1.260   1_556  A
O1771     Co2652   1.889   1_545  S
O1772      C1782   1.272       .  A
O1772     Co1775   2.034       .  S
O1773      C1780   1.319       .  A
O1774     Co1777   1.887       .  S
Co1775     O2643   1.914       .  S
Co1776     O2632   2.003   1_554  S
Co1776     O2647   1.888       .  S
Co1776     O2217   1.991   1_554  S
Co1777     O1779   2.082       .  S
Co1778     O2655   1.979   1_445  S
O1779     Co2214   1.990       .  S
O1779     Co2654   1.980   1_655  S
C1780      C2003   1.549       .  S
C1781      C2032   1.515       .  S
C1782      C1984   1.524       .  S
C1783      C2112   1.383       .  S
O1784      C1792   1.243       .  A
O1784     Co1804   1.938       .  S
O1785      C1793   1.276       .  A
O1785     Co1805   2.034       .  S
O1786      C1794   1.268       .  A
O1786     Co1806   2.154       .  S
O1787      C1795   1.249       .  A
O1787     Co1807   1.951       .  S
O1788      C1794   1.231       .  A
O1788     Co1805   2.003       .  S
O1789      C1795   1.288       .  A
O1789     Co1804   2.103       .  S
O1790      C1793   1.261       .  A
O1790     Co1807   1.968       .  S
O1791      C1792   1.288       .  A
O1791     Co1806   1.929       .  S
C1792      C2147   1.460       .  S
C1793      C1936   1.556       .  S
C1794      C1923   1.550       .  S
C1795      C1987   1.527       .  S
O1796      C1809   1.232       .  A
O1796     Co2242   1.928   1_554  S
O1797      C1810   1.309       .  A
O1797     Co1805   2.125       .  S
O1798      C1811   1.264       .  A
O1798     Co1806   2.027       .  S
O1799      C1812   1.257       .  A
O1799     Co2245   1.961   1_554  S
O1800      C2250   1.242       .  A
O1800     Co1805   1.924       .  S
O1801      C1811   1.287       .  A
O1801     Co1804   2.086       .  S
O1802      C1809   1.274       .  A
O1802     Co2245   2.086   1_554  S
O1803      C1810   1.263       .  A
O1803     Co1806   1.909       .  S
Co1804     O2234   1.928       .  S
Co1804     O1808   2.207       .  S
Co1805     O1808   2.112       .  S
Co1806     O1808   2.183       .  S
Co1807     O2237   1.960       .  S
Co1807     O2240   2.086       .  S
Co1807     O1808   2.133       .  S
C1809      C1904   1.524       .  S
C1810      C1968   1.534       .  S
C1811      C2393   1.550       .  S
C1812      O2238   1.241       .  A
C1812      C2096   1.440       .  S
O1813      C1821   1.254       .  A
O1813     Co1833   2.005       .  S
O1814      C1822   1.293       .  A
O1814     Co1834   2.113       .  S
O1815      C1823   1.261       .  A
O1815     Co1835   2.019       .  S
O1816      C1824   1.244       .  A
O1816     Co1836   1.923       .  S
O1817      C1823   1.255       .  A
O1817     Co1834   1.974       .  S
O1818      C1824   1.313       .  A
O1818     Co1833   2.186       .  S
O1819     Co1836   1.945       .  S
O1820      C1821   1.223       .  A
C1821      C2176   1.453       .  S
C1822      C2035   1.532       .  S
C1823      C1888   1.502       .  S
C1824      C1952   1.545       .  S
O1825      C1838   1.261       .  A
O1825     Co1833   1.902       .  S
O1826      C1839   1.280       .  A
O1826     Co1834   2.041       .  S
O1827      C1840   1.292       .  A
O1828      C1841   1.242       .  A
O1829      C1841   1.229       .  A
O1829     Co1834   1.879       .  S
O1830      C1840   1.275       .  A
O1830     Co1833   2.014       .  S
O1831      C1838   1.312       .  A
O1831     Co1836   2.153       .  S
O1832      C1839   1.269       .  A
O1832     Co1835   2.004       .  S
Co1833     O1837   2.116   1_655  S
Co1836     O1837   2.052   1_655  S
C1838      C1875   1.519       .  S
C1839      C1939   1.538       .  S
C1840      C2048   1.543       .  S
C1841      C2083   1.394       .  S
O1842      C1850   1.250       .  A
O1842     Co1862   1.925       .  S
O1843      C2727   1.288       .  A
O1843     Co1863   1.952       .  S
O1844      C1852   1.255       .  A
O1844     Co1864   2.082       .  S
O1845      C1853   1.252       .  A
O1845     Co1865   1.857       .  S
O1846      C1852   1.251       .  A
O1846     Co1863   2.002       .  S
O1847      C1853   1.321       .  A
O1847     Co2738   2.182       .  S
O1848      C1851   1.303   1_545  A
O1848     Co1865   2.082       .  S
O1849      C1850   1.271       .  A
O1849     Co1864   1.971       .  S
C1850      C2163   1.439       .  S
C1851      O2719   1.288       .  A
C1851      C2895   1.520       .  S
C1852      C1907   1.540       .  S
C1853      C1872   1.498       .  S
O1854      C1867   1.282       .  A
O1854     Co2738   2.043       .  S
O1855      C1868   1.300       .  A
O1855     Co1863   2.110       .  S
O1856      C1869   1.262       .  A
O1856     Co1864   1.991       .  S
O1857      C1870   1.246       .  A
O1857     Co1865   1.908       .  S
O1858      C1870   1.247       .  A
O1858     Co2739   1.890   1_545  S
O1859      C1869   1.298       .  A
O1859     Co1862   2.088       .  S
O1860      C1867   1.280       .  A
O1860     Co1865   2.148       .  S
O1861      C1868   1.252       .  A
O1861     Co1864   1.942       .  S
Co1862     O2723   2.182       .  S
Co1862     O2730   2.043       .  S
Co1862     O1866   1.998       .  S
Co1863     O2734   1.891       .  S
Co1863     O1866   1.937       .  S
Co1864     O1866   2.103       .  S
Co1865     O2742   2.077   1_545  S
O1866     Co2741   2.077       .  S
C1867      C1920   1.569       .  S
C1868      C1891   1.505       .  S
C1869      C2000   1.533       .  S
C1870      C2064   1.450       .  S
C1871      C1872   1.375       .  A
C1871      C1876   1.400       .  A
C1871      H1878   1.083       .  S
C1872      C1873   1.435       .  A
C1873      C1880   1.517       .  S
C1873      C1874   1.432       .  A
C1874      C1875   1.407       .  A
C1874      H1879   1.083       .  S
C1875      C1876   1.420       .  A
C1876      C1877   1.480       .  S
C1877      F1881   1.373       .  S
C1877      F1882   1.380       .  S
C1877      F1883   1.381       .  S
C1880      F1884   1.382       .  S
C1880      F1885   1.384       .  S
C1880      F1886   1.384       .  S
C1887      C1888   1.397       .  A
C1887      C1892   1.400       .  A
C1887      H1894   1.077       .  S
C1888      C1889   1.427       .  A
C1889      C1896   1.515       .  S
C1889      C1890   1.422       .  A
C1890      C1891   1.408       .  A
C1890      H1895   1.078       .  S
C1891      C1892   1.433       .  A
C1892      C1893   1.534       .  S
C1893      F1897   1.385       .  S
C1893      F1898   1.382       .  S
C1893      F1899   1.367       .  S
C1896      F1900   1.383       .  S
C1896      F1901   1.376       .  S
C1896      F1902   1.383       .  S
C1903      C1904   1.406       .  A
C1903      C1908   1.432       .  A
C1903      H1910   1.083       .  S
C1904      C1905   1.439       .  A
C1905      C1912   1.527       .  S
C1905      C1906   1.417       .  A
C1906      C1907   1.403       .  A
C1906      H1911   1.075       .  S
C1907      C1908   1.434       .  A
C1908      C1909   1.509       .  S
C1909      F1913   1.385       .  S
C1909      F1914   1.369       .  S
C1909      F1915   1.383       .  S
C1912      F1916   1.374       .  S
C1912      F1917   1.382       .  S
C1912      F1918   1.376       .  S
C1919      C1920   1.428       .  A
C1919      C1924   1.452       .  A
C1919      H1926   1.082       .  S
C1920      C1921   1.434       .  A
C1921      C1928   1.511       .  S
C1921      C1922   1.423       .  A
C1922      C1923   1.400       .  A
C1922      H1927   1.078       .  S
C1923      C1924   1.428       .  A
C1924      C1925   1.511       .  S
C1925      F1929   1.384       .  S
C1925      F1930   1.381       .  S
C1925      F1931   1.383       .  S
C1928      F1932   1.379       .  S
C1928      F1933   1.375       .  S
C1928      F1934   1.382       .  S
C1935      C1936   1.414       .  A
C1935      C1940   1.411       .  A
C1935      H1942   1.077       .  S
C1936      C1937   1.439       .  A
C1937      C1944   1.502       .  S
C1937      C1938   1.437       .  A
C1938      C1939   1.411       .  A
C1938      H1943   1.084       .  S
C1939      C1940   1.430       .  A
C1940      C1941   1.520       .  S
C1941      F1945   1.379       .  S
C1941      F1946   1.373       .  S
C1941      F1947   1.371       .  S
C1944      F1948   1.373       .  S
C1944      F1949   1.379       .  S
C1944      F1950   1.384       .  S
C1951      C1952   1.401       .  A
C1951      C1956   1.430       .  A
C1951      H1958   1.083       .  S
C1952      C1953   1.445       .  A
C1953      C1960   1.524       .  S
C1953      C1954   1.434       .  A
C1954      C1955   1.406       .  A
C1954      H1959   1.082       .  S
C1955      C2249   1.550       .  S
C1955      C1956   1.437       .  A
C1956      C1957   1.503       .  S
C1957      F1961   1.385       .  S
C1957      F1962   1.381       .  S
C1957      F1963   1.370       .  S
C1960      F1964   1.382       .  S
C1960      F1965   1.379       .  S
C1960      F1966   1.385       .  S
C1967      C1968   1.416       .  A
C1967      C2410   1.396       .  A
C1967      H2412   1.083       .  S
C1968      C1969   1.422       .  A
C1969      C1976   1.502       .  S
C1969      C1970   1.431       .  A
C1970      C2409   1.417       .  A
C1970      H1975   1.081       .  S
C1971      C2408   1.417       .  A
C1971      C1972   1.422       .  A
C1972      C1973   1.518       .  S
C1972      C2405   1.397       .  A
C1973      F1977   1.386       .  S
C1973      F1978   1.368       .  S
C1973      F1979   1.382   1_556  S
H1974      C2405   1.083   1_554  S
C1976      F1980   1.370       .  S
C1976      F1981   1.382       .  S
C1976      F1982   1.384       .  S
C1983      C1984   1.406       .  A
C1983      C1988   1.421       .  A
C1983      H1990   1.083       .  S
C1984      C1985   1.421       .  A
C1985      C1992   1.514       .  S
C1985      C1986   1.436       .  A
C1986      C1987   1.416       .  A
C1986      H1991   1.083       .  S
C1987      C1988   1.425       .  A
C1988      C2427   1.508       .  S
C1989      C2426   1.508   1_554  S
C1989      F1993   1.384       .  S
C1989      F1994   1.377       .  S
C1989      F1995   1.379       .  S
C1992      F1996   1.380       .  S
C1992      F1997   1.384       .  S
C1992      F1998   1.368       .  S
C1999      C2000   1.400       .  A
C1999      C2004   1.431       .  A
C1999      H2006   1.085       .  S
C2000      C2877   1.429       .  A
C2001      C2008   1.505       .  S
C2001      C2876   1.429       .  A
C2001      C2002   1.420       .  A
C2002      C2003   1.409       .  A
C2002      H2007   1.085       .  S
C2003      C2880   1.442   1_545  A
C2004      C2005   1.504       .  S
C2004      C2879   1.442       .  A
C2005      F2009   1.377       .  S
C2005      F2010   1.373       .  S
C2005      F2011   1.380       .  S
C2008      F2012   1.382       .  S
C2008      F2013   1.370       .  S
C2008      F2014   1.384       .  S
C2015      C2016   1.418       .  A
C2015      C2020   1.437       .  A
C2015      H2022   1.082       .  S
C2016      C2203   1.518       .  S
C2016      C2017   1.438       .  A
C2017      C2024   1.528       .  S
C2017      C2018   1.408       .  A
C2018      C2019   1.400       .  A
C2018      H2023   1.086       .  S
C2019      C2727   1.520       .  S
C2019      C2020   1.421       .  A
C2020      C2897   1.511       .  S
C2021      C2896   1.511   1_545  S
C2021      F2025   1.381       .  S
C2021      F2026   1.382       .  S
C2021      F2027   1.383   1_545  S
C2024      F2028   1.373       .  S
C2024      F2029   1.384       .  S
C2024      F2030   1.384       .  S
C2031      C2032   1.419       .  A
C2031      C2036   1.439       .  A
C2031      H2038   1.082       .  S
C2033      C2040   1.535       .  S
C2033      C2034   1.399       .  A
C2034      H2039   1.077       .  S
C2035      C2036   1.425       .  A
C2036      C2037   1.514       .  S
C2037      F2041   1.378       .  S
C2037      F2042   1.381       .  S
C2037      F2043   1.374       .  S
C2040      F2044   1.381       .  S
C2040      F2045   1.377       .  S
C2040      F2046   1.383       .  S
C2047      C2048   1.405       .  A
C2047      C2052   1.430       .  A
C2047      H2054   1.078       .  S
C2048      C2049   1.413   1_655  A
C2049      C2050   1.425       .  A
C2050      C2051   1.413   1_455  A
C2051      C2052   1.427       .  A
C2052      C2053   1.500       .  S
C2053      F2057   1.385       .  S
C2053      F2058   1.354       .  S
C2053      F2059   1.383       .  S
C2056      F2060   1.384       .  S
C2056      F2061   1.370       .  S
C2056      F2062   1.377       .  S
C2063      C2064   1.383       .  A
C2063      C2068   1.403       .  A
C2063      H2070   1.077       .  S
C2064      C2065   1.371       .  A
C2065      C2072   1.507       .  S
C2065      C2066   1.383       .  A
C2066      C2067   1.449       .  A
C2066      H2071   1.075       .  S
C2067      C2068   1.428       .  A
C2068      C2069   1.537       .  S
C2069      F2949   1.373   1_545  S
C2069      F2074   1.378   1_545  S
C2069      F2075   1.365       .  S
C2072      F2076   1.382       .  S
C2072      F2077   1.385       .  S
C2072      F2078   1.383       .  S
F2073      C2945   1.373       .  S
C2079      C2080   1.409       .  A
C2079      C2084   1.380       .  A
C2079      H2086   1.069       .  S
C2080      C2081   1.474       .  A
C2081      C2088   1.556       .  S
C2081      C2082   1.364       .  A
C2082      C2083   1.368       .  A
C2082      H2087   1.091       .  S
C2083      C2084   1.391       .  A
C2084      C2085   1.513       .  S
C2085      F2089   1.383       .  S
C2085      F2090   1.383       .  S
C2085      F2091   1.382       .  S
C2088      F2092   1.383       .  S
C2088      F2093   1.366       .  S
C2088      F2094   1.378       .  S
C2095      C2096   1.403       .  A
C2095      C2100   1.383       .  A
C2095      H2540   1.083       .  S
C2096      C2097   1.412       .  A
C2097      C2104   1.527       .  S
C2097      C2098   1.400       .  A
C2098      C2099   1.420       .  A
C2098      H2103   1.080       .  S
C2099      C2100   1.422       .  A
C2100      C2101   1.520       .  S
C2101      F2543   1.386   1_554  S
C2101      F2106   1.382       .  S
C2101      F2545   1.377   1_554  S
H2102      C2533   1.083       .  S
C2104      F2108   1.380       .  S
C2104      F2109   1.376       .  S
C2104      F2110   1.382       .  S
F2105      C2539   1.385       .  S
F2107      C2539   1.377       .  S
C2111      C2112   1.402       .  A
C2111      C2116   1.389       .  A
C2111      H2118   1.086       .  S
C2112      C2113   1.387       .  A
C2113      C2114   1.354       .  A
C2114      C2115   1.426       .  A
C2114      H2119   1.081       .  S
C2115      C2116   1.401       .  A
C2116      C2117   1.516       .  S
C2117      F2997   1.383   1_545  S
C2117      F2122   1.368       .  S
C2117      F2123   1.380   1_554  S
C2120      F2124   1.377       .  S
C2120      F2125   1.381       .  S
C2120      F2126   1.382       .  S
F2121      C2993   1.383       .  S
C2127      C2128   1.414       .  A
C2127      C2132   1.410       .  A
C2127      H2134   1.076       .  S
C2128      C2129   1.407       .  A
C2129      C2136   1.514       .  S
C2129      C2130   1.394       .  A
C2130      C2131   1.407       .  A
C2130      H2135   1.074       .  S
C2131      C2132   1.414       .  A
C2132      C2133   1.514       .  S
C2133      F3013   1.384       .  S
C2133      F3014   1.381       .  S
C2133      F3015   1.380       .  S
C2136      F2140   1.381       .  S
C2136      F2141   1.380       .  S
C2136      F2142   1.377       .  S
F2137      C3009   1.384   1_545  S
F2138      C3009   1.381   1_545  S
F2139      C3009   1.380   1_545  S
C2143      C2144   1.403       .  A
C2143      C2148   1.379       .  A
C2143      H2150   1.063       .  S
C2144      C2145   1.440       .  A
C2145      C2152   1.523       .  S
C2145      C2146   1.410       .  A
C2146      C2147   1.397       .  A
C2146      H2151   1.086       .  S
C2147      C2148   1.402       .  A
C2148      C2149   1.516       .  S
C2149      F2153   1.382       .  S
C2149      F2154   1.380       .  S
C2149      F2155   1.366       .  S
C2152      F2156   1.379       .  S
C2152      F2157   1.366       .  S
C2152      F2158   1.384       .  S
C2159      C2160   1.422       .  A
C2159      C2164   1.381       .  A
C2159      H2166   1.070       .  S
C2160      C2161   1.457       .  A
C2161      C2168   1.532       .  S
C2161      C2162   1.403       .  A
C2162      C2163   1.391       .  A
C2162      H2167   1.085       .  S
C2163      C2164   1.391       .  A
C2164      C2165   1.517       .  S
C2165      F2169   1.381       .  S
C2165      F2170   1.379       .  S
C2165      F3047   1.383       .  S
C2168      F2172   1.381       .  S
C2168      F2173   1.370       .  S
C2168      F2174   1.382       .  S
F2171      C3041   1.383       .  S
C2175      C2176   1.405       .  A
C2175      C2180   1.388       .  A
C2175      H2182   1.082       .  S
C2176      C2177   1.436       .  A
C2177      C2184   1.525       .  S
C2177      C2178   1.412       .  A
C2178      C2179   1.402       .  A
C2178      H2183   1.079       .  S
C2179      C2180   1.409       .  A
C2180      C2181   1.513       .  S
C2181      F2185   1.377       .  S
C2181      F2186   1.385       .  S
C2181      F2187   1.377       .  S
C2184      F2188   1.380       .  S
C2184      F2189   1.352       .  S
C2184      F2190   1.377       .  S
C2191      C2566   1.569       .  S
C2191      C2582   1.549       .  S
C2191      C2598   1.578       .  S
C2191      C2617   1.607       .  S
C2192      C2505   1.544       .  S
C2192      C2518   1.558       .  S
C2192      C2537   1.571       .  S
C2192      C2553   1.502       .  S
O2193      C2201   1.258       .  A
O2194      C2202   1.258       .  A
O2194     Co3090   2.001   1_545  S
O2195      C2203   1.327   1_556  A
O2195     Co2215   2.192       .  S
O2196      C2204   1.265   1_455  A
O2196     Co2216   1.921       .  S
O2197     Co2214   1.868       .  S
O2198      C2204   1.315       .  A
O2199     Co2216   2.033   1_655  S
O2200      C2201   1.284       .  A
O2200     Co2215   1.934       .  S
C2201      C2569   1.458       .  S
C2202      C2409   1.514       .  S
C2204      C2489   1.535       .  S
O2205      C2218   1.285       .  A
O2205     Co3089   1.914   1_545  S
O2206     Co2214   2.142       .  S
O2207      C2220   1.271       .  A
O2208      C2221   1.261       .  A
O2209     Co3090   1.891   1_545  S
O2210      C2220   1.271       .  A
O2210     Co2213   2.033       .  S
O2211      C2218   1.318       .  A
O2212     Co2215   1.886   1_554  S
Co2213     O3081   1.914       .  S
Co2214     O3070   2.002       .  S
Co2214     O3085   1.887       .  S
Co2215     O2217   2.084       .  S
Co2216     O3093   1.980   1_445  S
O2217     Co3092   1.980   1_655  S
C2218      C2441   1.548       .  S
C2219      C2470   1.514       .  S
C2220      C2422   1.524       .  S
C2221      C2550   1.383       .  S
O2222      C2230   1.243       .  A
O2222     Co2242   1.938       .  S
O2223      C2231   1.277       .  A
O2223     Co2243   2.034       .  S
O2224      C2232   1.268       .  A
O2224     Co2244   2.153       .  S
O2225      C2233   1.249       .  A
O2225     Co2245   1.950       .  S
O2226      C2232   1.231       .  A
O2226     Co2243   2.002       .  S
O2227      C2233   1.288       .  A
O2227     Co2242   2.103       .  S
O2228      C2231   1.261       .  A
O2228     Co2245   1.968       .  S
O2229      C2230   1.288       .  A
O2229     Co2244   1.929       .  S
C2230      C2585   1.460       .  S
C2231      C2374   1.557       .  S
C2232      C2361   1.549       .  S
C2233      C2425   1.527       .  S
O2234      C2247   1.232       .  A
O2235      C2248   1.309       .  A
O2235     Co2243   2.125       .  S
O2236      C2249   1.265       .  A
O2236     Co2244   2.026   1_554  S
O2237      C2250   1.257       .  A
O2238     Co2243   1.924   1_554  S
O2239      C2249   1.287   1_556  A
O2239     Co2242   2.086       .  S
O2240      C2247   1.274       .  A
O2241      C2248   1.263       .  A
O2241     Co2244   1.910       .  S
Co2242     O2246   2.207       .  S
Co2243     O2246   2.111       .  S
Co2244     O2246   2.185       .  S
Co2245     O2246   2.134       .  S
C2247      C2342   1.524       .  S
C2248      C2406   1.534       .  S
C2250      C2534   1.439       .  S
O2251      C2259   1.254       .  A
O2251     Co2271   2.005       .  S
O2252      C2260   1.293       .  A
O2252     Co2272   2.113       .  S
O2253      C2261   1.261       .  A
O2253     Co2273   2.020       .  S
O2254      C2262   1.244       .  A
O2254     Co2274   1.923       .  S
O2255      C2261   1.255       .  A
O2255     Co2272   1.976       .  S
O2256      C2262   1.313       .  A
O2256     Co2271   2.186       .  S
O2257     Co2274   1.945       .  S
O2258      C2259   1.223       .  A
C2259      C2614   1.454       .  S
C2260      C2473   1.533       .  S
C2261      C2326   1.503       .  S
C2262      C2390   1.545       .  S
O2263      C2276   1.261       .  A
O2263     Co2271   1.903       .  S
O2264      C2277   1.280       .  A
O2264     Co2272   2.042       .  S
O2265      C2278   1.292       .  A
O2266      C2279   1.243       .  A
O2267      C2279   1.229       .  A
O2267     Co2272   1.882       .  S
O2268      C2278   1.275       .  A
O2268     Co2271   2.012       .  S
O2269      C2276   1.312       .  A
O2269     Co2274   2.154       .  S
O2270      C2277   1.269       .  A
O2270     Co2273   2.004       .  S
Co2271     O2275   2.117   1_655  S
Co2274     O2275   2.051   1_655  S
C2276      C2313   1.520       .  S
C2277      C2377   1.539       .  S
C2278      C2486   1.541       .  S
C2279      C2521   1.394       .  S
O2280      C2288   1.250       .  A
O2280     Co2300   1.925       .  S
O2281      C3165   1.288       .  A
O2281     Co2301   1.953       .  S
O2282      C2290   1.255       .  A
O2282     Co2302   2.081       .  S
O2283      C2291   1.253       .  A
O2283     Co2303   1.859       .  S
O2284      C2290   1.250       .  A
O2284     Co2301   2.002       .  S
O2285      C2291   1.321       .  A
O2285     Co3176   2.182       .  S
O2286      C2289   1.303   1_545  A
O2286     Co2303   2.083       .  S
O2287      C2288   1.271       .  A
O2287     Co2302   1.971       .  S
C2288      C2601   1.440       .  S
C2289      O3157   1.288       .  A
C2289      C3333   1.519       .  S
C2290      C2345   1.540       .  S
C2291      C2310   1.499       .  S
O2292      C2305   1.282       .  A
O2292     Co3176   2.043       .  S
O2293      C2306   1.300       .  A
O2293     Co2301   2.112       .  S
O2294      C2307   1.262       .  A
O2294     Co2302   1.992       .  S
O2295      C2308   1.247       .  A
O2295     Co2303   1.910       .  S
O2296      C2308   1.246       .  A
O2296     Co3177   1.888   1_545  S
O2297      C2307   1.299       .  A
O2297     Co2300   2.088       .  S
O2298      C2305   1.280       .  A
O2298     Co2303   2.146       .  S
O2299      C2306   1.253       .  A
O2299     Co2302   1.942       .  S
Co2300     O3161   2.183       .  S
Co2300     O3168   2.042       .  S
Co2300     O2304   1.998       .  S
Co2301     O3172   1.892       .  S
Co2301     O2304   1.937       .  S
Co2302     O2304   2.103       .  S
Co2303     O3180   2.077   1_545  S
O2304     Co3179   2.078       .  S
C2305      C2358   1.568       .  S
C2306      C2329   1.507       .  S
C2307      C2438   1.533       .  S
C2308      C2502   1.450       .  S
C2309      C2310   1.376       .  A
C2309      C2314   1.401       .  A
C2309      H2316   1.083       .  S
C2310      C2311   1.435       .  A
C2311      C2318   1.517       .  S
C2311      C2312   1.432       .  A
C2312      C2313   1.407       .  A
C2312      H2317   1.083       .  S
C2313      C2314   1.420       .  A
C2314      C2315   1.480       .  S
C2315      F2319   1.374       .  S
C2315      F2320   1.380       .  S
C2315      F2321   1.381       .  S
C2318      F2322   1.382       .  S
C2318      F2323   1.384       .  S
C2318      F2324   1.384       .  S
C2325      C2326   1.397       .  A
C2325      C2330   1.401       .  A
C2325      H2332   1.077       .  S
C2326      C2327   1.428       .  A
C2327      C2334   1.515       .  S
C2327      C2328   1.423       .  A
C2328      C2329   1.409       .  A
C2328      H2333   1.077       .  S
C2329      C2330   1.433       .  A
C2330      C2331   1.534       .  S
C2331      F2335   1.385       .  S
C2331      F2336   1.382       .  S
C2331      F2337   1.367       .  S
C2334      F2338   1.383       .  S
C2334      F2339   1.376       .  S
C2334      F2340   1.383       .  S
C2341      C2342   1.406       .  A
C2341      C2346   1.432       .  A
C2341      H2348   1.083       .  S
C2342      C2343   1.438       .  A
C2343      C2350   1.527       .  S
C2343      C2344   1.417       .  A
C2344      C2345   1.403       .  A
C2344      H2349   1.075       .  S
C2345      C2346   1.434       .  A
C2346      C2347   1.509       .  S
C2347      F2351   1.385       .  S
C2347      F2352   1.369       .  S
C2347      F2353   1.384       .  S
C2350      F2354   1.374       .  S
C2350      F2355   1.382       .  S
C2350      F2356   1.376       .  S
C2357      C2358   1.428       .  A
C2357      C2362   1.452       .  A
C2357      H2364   1.082       .  S
C2358      C2359   1.434       .  A
C2359      C2366   1.511       .  S
C2359      C2360   1.422       .  A
C2360      C2361   1.400       .  A
C2360      H2365   1.078       .  S
C2361      C2362   1.427       .  A
C2362      C2363   1.511       .  S
C2363      F2367   1.384       .  S
C2363      F2368   1.381       .  S
C2363      F2369   1.383       .  S
C2366      F2370   1.379       .  S
C2366      F2371   1.375       .  S
C2366      F2372   1.382       .  S
C2373      C2374   1.415       .  A
C2373      C2378   1.411       .  A
C2373      H2380   1.077       .  S
C2374      C2375   1.439       .  A
C2375      C2382   1.502       .  S
C2375      C2376   1.437       .  A
C2376      C2377   1.411       .  A
C2376      H2381   1.084       .  S
C2377      C2378   1.430       .  A
C2378      C2379   1.521       .  S
C2379      F2383   1.379       .  S
C2379      F2384   1.373       .  S
C2379      F2385   1.371       .  S
C2382      F2386   1.373       .  S
C2382      F2387   1.379       .  S
C2382      F2388   1.384       .  S
C2389      C2390   1.401       .  A
C2389      C2394   1.430       .  A
C2389      H2396   1.083       .  S
C2390      C2391   1.445       .  A
C2391      C2398   1.524       .  S
C2391      C2392   1.434       .  A
C2392      C2393   1.406       .  A
C2392      H2397   1.082       .  S
C2393      C2394   1.437       .  A
C2394      C2395   1.503       .  S
C2395      F2399   1.385       .  S
C2395      F2400   1.381       .  S
C2395      F2401   1.370       .  S
C2398      F2402   1.382       .  S
C2398      F2403   1.379       .  S
C2398      F2404   1.385       .  S
C2405      C2406   1.416       .  A
C2406      C2407   1.422       .  A
C2407      C2414   1.502       .  S
C2407      C2408   1.431       .  A
C2408      H2413   1.081       .  S
C2409      C2410   1.422       .  A
C2410      C2411   1.519       .  S
C2411      F2415   1.386       .  S
C2411      F2416   1.368       .  S
C2411      F2417   1.382       .  S
C2414      F2418   1.370       .  S
C2414      F2419   1.382       .  S
C2414      F2420   1.384       .  S
C2421      C2422   1.406       .  A
C2421      C2426   1.421       .  A
C2421      H2428   1.083   1_556  S
C2422      C2423   1.421       .  A
C2423      C2430   1.514       .  S
C2423      C2424   1.436       .  A
C2424      C2425   1.416       .  A
C2424      H2429   1.083       .  S
C2425      C2426   1.425       .  A
C2427      F2431   1.384       .  S
C2427      F2432   1.377       .  S
C2427      F2433   1.379       .  S
C2430      F2434   1.380       .  S
C2430      F2435   1.384       .  S
C2430      F2436   1.369       .  S
C2437      C2438   1.400       .  A
C2437      C2442   1.431       .  A
C2437      H2444   1.085       .  S
C2438      C3315   1.429       .  A
C2439      C2446   1.505       .  S
C2439      C3314   1.430       .  A
C2439      C2440   1.420       .  A
C2440      C2441   1.409       .  A
C2440      H2445   1.085       .  S
C2441      C3318   1.442   1_545  A
C2442      C2443   1.503       .  S
C2442      C3317   1.442       .  A
C2443      F2447   1.377       .  S
C2443      F2448   1.373       .  S
C2443      F2449   1.380       .  S
C2446      F2450   1.382       .  S
C2446      F2451   1.370       .  S
C2446      F2452   1.384       .  S
C2453      C2454   1.418       .  A
C2453      C2458   1.437       .  A
C2453      H2460   1.082       .  S
C2454      C2455   1.438       .  A
C2455      C2462   1.528       .  S
C2455      C2456   1.408       .  A
C2456      C2457   1.400       .  A
C2456      H2461   1.086       .  S
C2457      C3165   1.520       .  S
C2457      C2458   1.421       .  A
C2458      C3335   1.511       .  S
C2459      C3334   1.511   1_545  S
C2459      F2463   1.381       .  S
C2459      F2464   1.382       .  S
C2459      F2465   1.383   1_545  S
C2462      F2466   1.373       .  S
C2462      F2467   1.384       .  S
C2462      F2468   1.384       .  S
C2469      C2470   1.419       .  A
C2469      C2474   1.439       .  A
C2469      H2476   1.082       .  S
C2471      C2478   1.535       .  S
C2471      C2472   1.399       .  A
C2472      H2477   1.077       .  S
C2473      C2474   1.425       .  A
C2474      C2475   1.515       .  S
C2475      F2479   1.379       .  S
C2475      F2480   1.381       .  S
C2475      F2481   1.374       .  S
C2478      F2482   1.381       .  S
C2478      F2483   1.377       .  S
C2478      F2484   1.383       .  S
C2485      C2486   1.405       .  A
C2485      C2490   1.430       .  A
C2485      H2492   1.078       .  S
C2486      C2487   1.412   1_655  A
C2487      C2488   1.424       .  A
C2488      C2489   1.413   1_455  A
C2489      C2490   1.427       .  A
C2490      C2491   1.501       .  S
C2491      F2495   1.385       .  S
C2491      F2496   1.357       .  S
C2491      F2497   1.383       .  S
C2494      F2498   1.384       .  S
C2494      F2499   1.370       .  S
C2494      F2500   1.377       .  S
C2501      C2502   1.385       .  A
C2501      C2506   1.402       .  A
C2501      H2508   1.078       .  S
C2502      C2503   1.371       .  A
C2503      C2510   1.507       .  S
C2503      C2504   1.382       .  A
C2504      C2505   1.448       .  A
C2504      H2509   1.074       .  S
C2505      C2506   1.427       .  A
C2506      C2507   1.536       .  S
C2507      F3387   1.372   1_545  S
C2507      F2512   1.378       .  S
C2507      F2513   1.365       .  S
C2510      F2514   1.383       .  S
C2510      F2515   1.385       .  S
C2510      F2516   1.383       .  S
F2511      C3383   1.373       .  S
C2517      C2518   1.409       .  A
C2517      C2522   1.380       .  A
C2517      H2524   1.068       .  S
C2518      C2519   1.474       .  A
C2519      C2526   1.556       .  S
C2519      C2520   1.365       .  A
C2520      C2521   1.368       .  A
C2520      H2525   1.091       .  S
C2521      C2522   1.392       .  A
C2522      C2523   1.513       .  S
C2523      F2527   1.383       .  S
C2523      F2528   1.383       .  S
C2523      F2529   1.382       .  S
C2526      F2530   1.383       .  S
C2526      F2531   1.366       .  S
C2526      F2532   1.378       .  S
C2533      C2534   1.403       .  A
C2533      C2538   1.383       .  A
C2534      C2535   1.412       .  A
C2535      C2542   1.528       .  S
C2535      C2536   1.400       .  A
C2536      C2537   1.421       .  A
C2536      H2541   1.080       .  S
C2537      C2538   1.422       .  A
C2538      C2539   1.521       .  S
C2539      F2544   1.382       .  S
C2542      F2546   1.380       .  S
C2542      F2547   1.376       .  S
C2542      F2548   1.382       .  S
C2549      C2550   1.403       .  A
C2549      C2554   1.389       .  A
C2549      H2556   1.087       .  S
C2550      C2551   1.387       .  A
C2551      C2552   1.354       .  A
C2552      C2553   1.425       .  A
C2552      H2557   1.081       .  S
C2553      C2554   1.399       .  A
C2554      C2555   1.515       .  S
C2555      F3435   1.383   1_545  S
C2555      F2560   1.368       .  S
C2555      F2561   1.380       .  S
C2558      F2562   1.377       .  S
C2558      F2563   1.381       .  S
C2558      F2564   1.382       .  S
F2559      C3431   1.383       .  S
C2565      C2566   1.414       .  A
C2565      C2570   1.410       .  A
C2565      H2572   1.076       .  S
C2566      C2567   1.407       .  A
C2567      C2574   1.514       .  S
C2567      C2568   1.394       .  A
C2568      C2569   1.407       .  A
C2568      H2573   1.074       .  S
C2569      C2570   1.414       .  A
C2570      C2571   1.514       .  S
C2571      F3451   1.384       .  S
C2571      F3452   1.381       .  S
C2571      F3453   1.380       .  S
C2574      F2578   1.381       .  S
C2574      F2579   1.380       .  S
C2574      F2580   1.377       .  S
F2575      C3447   1.384   1_545  S
F2576      C3447   1.381   1_545  S
F2577      C3447   1.380   1_545  S
C2581      C2582   1.403       .  A
C2581      C2586   1.379       .  A
C2581      H2588   1.063       .  S
C2582      C2583   1.440       .  A
C2583      C2590   1.523       .  S
C2583      C2584   1.410       .  A
C2584      C2585   1.397       .  A
C2584      H2589   1.086       .  S
C2585      C2586   1.402       .  A
C2586      C2587   1.516       .  S
C2587      F2591   1.382       .  S
C2587      F2592   1.380       .  S
C2587      F2593   1.366       .  S
C2590      F2594   1.379       .  S
C2590      F2595   1.366       .  S
C2590      F2596   1.384       .  S
C2597      C2598   1.422       .  A
C2597      C2602   1.381       .  A
C2597      H2604   1.070       .  S
C2598      C2599   1.457       .  A
C2599      C2606   1.532       .  S
C2599      C2600   1.403       .  A
C2600      C2601   1.391       .  A
C2600      H2605   1.085       .  S
C2601      C2602   1.391       .  A
C2602      C2603   1.517       .  S
C2603      F2607   1.381       .  S
C2603      F2608   1.379       .  S
C2603      F3485   1.383       .  S
C2606      F2610   1.381       .  S
C2606      F2611   1.370       .  S
C2606      F2612   1.382       .  S
F2609      C3479   1.383       .  S
C2613      C2614   1.405       .  A
C2613      C2618   1.388       .  A
C2613      H2620   1.082       .  S
C2614      C2615   1.436       .  A
C2615      C2622   1.525       .  S
C2615      C2616   1.412       .  A
C2616      C2617   1.402       .  A
C2616      H2621   1.079       .  S
C2617      C2618   1.409       .  A
C2618      C2619   1.513       .  S
C2619      F2623   1.377       .  S
C2619      F2624   1.385       .  S
C2619      F2625   1.377       .  S
C2622      F2626   1.380       .  S
C2622      F2627   1.352       .  S
C2622      F2628   1.377       .  S
C2629      C3004   1.569       .  S
C2629      C3020   1.549       .  S
C2629      C3036   1.578       .  S
C2629      C3055   1.607       .  S
C2630      C2943   1.542       .  S
C2630      C2956   1.556       .  S
C2630      C2975   1.570       .  S
C2630      C2991   1.503       .  S
O2631      C2639   1.258       .  A
O2632      C2640   1.258       .  A
O2633      C2641   1.327       .  A
O2633     Co2653   2.192       .  S
O2634      C2642   1.266   1_455  A
O2634     Co2654   1.923       .  S
O2635      C3079   1.256       .  A
O2635     Co2652   1.868       .  S
O2636      C2642   1.315       .  A
O2637      C3078   1.275       .  A
O2637     Co2654   2.031   1_655  S
O2638      C2639   1.284       .  A
O2638     Co2653   1.934       .  S
C2639      C3007   1.459       .  S
C2640      O3075   1.275       .  A
C2640      C2847   1.515       .  S
C2641      O3073   1.256       .  A
C2641      C3330   1.518       .  S
C2642      C2927   1.537       .  S
O2643      C2656   1.285       .  A
O2644     Co2652   2.142       .  S
O2645      C2658   1.271       .  A
O2646      C2659   1.260   1_556  A
O2648      C2658   1.271       .  A
O2648     Co2651   2.034       .  S
O2649      C2656   1.317       .  A
O2650     Co2653   1.884       .  S
Co2652     O3093   1.991   1_554  S
Co2653     O2655   2.084       .  S
O2655     Co3090   1.991       .  S
C2656      C2879   1.548       .  S
C2657      C2908   1.515       .  S
C2658      C2860   1.525       .  S
C2659      C2988   1.383       .  S
O2660      C2668   1.243       .  A
O2660     Co2680   1.937       .  S
O2661      C2669   1.277       .  A
O2661     Co2681   2.034       .  S
O2662      C2670   1.268       .  A
O2662     Co2682   2.155       .  S
O2663      C2671   1.249       .  A
O2663     Co2683   1.951       .  S
O2664      C2670   1.231       .  A
O2664     Co2681   2.003       .  S
O2665      C2671   1.288       .  A
O2665     Co2680   2.101       .  S
O2666      C2669   1.262       .  A
O2666     Co2683   1.969       .  S
O2667      C2668   1.288       .  A
O2667     Co2682   1.928       .  S
C2668      C3023   1.460       .  S
C2669      C2812   1.556       .  S
C2670      C2799   1.550       .  S
C2671      C2863   1.527       .  S
O2672      C2685   1.232       .  A
O2672     Co3118   1.928   1_554  S
O2673      C2686   1.309       .  A
O2673     Co2681   2.126       .  S
O2674      C2687   1.265       .  A
O2674     Co2682   2.026       .  S
O2675      C2688   1.257       .  A
O2675     Co3121   1.961   1_554  S
O2676      C3126   1.241       .  A
O2676     Co2681   1.923       .  S
O2677      C2687   1.288       .  A
O2677     Co2680   2.086       .  S
O2678      C2685   1.275       .  A
O2678     Co3121   2.086   1_554  S
O2679      C2686   1.263       .  A
O2679     Co2682   1.910       .  S
Co2680     O3110   1.928       .  S
Co2680     O2684   2.208       .  S
Co2681     O2684   2.112       .  S
Co2682     O2684   2.184       .  S
Co2683     O3113   1.962       .  S
Co2683     O3116   2.087       .  S
Co2683     O2684   2.136       .  S
C2685      C2780   1.525       .  S
C2686      C2844   1.535       .  S
C2687      C3269   1.550       .  S
C2688      O3114   1.241       .  A
C2688      C2972   1.440       .  S
O2689      C2697   1.254       .  A
O2689     Co2709   2.005       .  S
O2690      C2698   1.293       .  A
O2690     Co2710   2.113       .  S
O2691      C2699   1.261       .  A
O2691     Co2711   2.019       .  S
O2692      C2700   1.244       .  A
O2692     Co2712   1.923       .  S
O2693      C2699   1.255       .  A
O2693     Co2710   1.974       .  S
O2694      C2700   1.313       .  A
O2694     Co2709   2.186       .  S
O2695     Co2712   1.945       .  S
O2696      C2697   1.223       .  A
C2697      C3052   1.453       .  S
C2698      C2911   1.532       .  S
C2699      C2764   1.502       .  S
C2700      C2828   1.545       .  S
O2701      C2714   1.261       .  A
O2701     Co2709   1.902       .  S
O2702      C2715   1.280       .  A
O2702     Co2710   2.041       .  S
O2703      C2716   1.292       .  A
O2704      C2717   1.242       .  A
O2705      C2717   1.229       .  A
O2705     Co2710   1.878       .  S
O2706      C2716   1.275       .  A
O2706     Co2709   2.014       .  S
O2707      C2714   1.312       .  A
O2707     Co2712   2.153       .  S
O2708      C2715   1.269       .  A
O2708     Co2711   2.004       .  S
Co2709     O2713   2.116   1_655  S
Co2712     O2713   2.052   1_655  S
C2714      C2751   1.519       .  S
C2715      C2815   1.538       .  S
C2716      C2924   1.543       .  S
C2717      C2959   1.394       .  S
O2718      C2726   1.249       .  A
O2718     Co2738   1.925   1_565  S
O2719     Co2739   1.952       .  S
O2720      C2728   1.255       .  A
O2720     Co2740   2.083       .  S
O2721      C2729   1.252       .  A
O2721     Co2741   1.857       .  S
O2722      C2728   1.251       .  A
O2722     Co2739   2.002       .  S
O2723      C2729   1.321       .  A
O2724      C2727   1.303       .  A
O2724     Co2741   2.082       .  S
O2725      C2726   1.271       .  A
O2725     Co2740   1.971       .  S
C2726      C3039   1.439       .  S
C2728      C2783   1.541       .  S
C2729      C2748   1.498       .  S
O2730      C2743   1.282       .  A
O2731      C2744   1.299       .  A
O2731     Co2739   2.109       .  S
O2732      C2745   1.262       .  A
O2732     Co2740   1.991       .  S
O2733      C2746   1.245       .  A
O2733     Co2741   1.908       .  S
O2734      C2746   1.248       .  A
O2735      C2745   1.298   1_545  A
O2735     Co2738   2.087       .  S
O2736      C2743   1.281       .  A
O2736     Co2741   2.148       .  S
O2737      C2744   1.252       .  A
O2737     Co2740   1.942       .  S
Co2738     O2742   1.998   1_545  S
Co2739     O2742   1.937       .  S
Co2740     O2742   2.103       .  S
C2743      C2796   1.569       .  S
C2744      C2767   1.505       .  S
C2745      C2876   1.533   1_565  S
C2746      C2940   1.451       .  S
C2747      C2748   1.375       .  A
C2747      C2752   1.400       .  A
C2747      H2754   1.083       .  S
C2748      C2749   1.435       .  A
C2749      C2756   1.517       .  S
C2749      C2750   1.432       .  A
C2750      C2751   1.407       .  A
C2750      H2755   1.083       .  S
C2751      C2752   1.421       .  A
C2752      C2753   1.480       .  S
C2753      F2757   1.373       .  S
C2753      F2758   1.380       .  S
C2753      F2759   1.381       .  S
C2756      F2760   1.382       .  S
C2756      F2761   1.384       .  S
C2756      F2762   1.384       .  S
C2763      C2764   1.397       .  A
C2763      C2768   1.400       .  A
C2763      H2770   1.077       .  S
C2764      C2765   1.428       .  A
C2765      C2772   1.515       .  S
C2765      C2766   1.422       .  A
C2766      C2767   1.408       .  A
C2766      H2771   1.078       .  S
C2767      C2768   1.432       .  A
C2768      C2769   1.534       .  S
C2769      F2773   1.385       .  S
C2769      F2774   1.382       .  S
C2769      F2775   1.367       .  S
C2772      F2776   1.383       .  S
C2772      F2777   1.376       .  S
C2772      F2778   1.383       .  S
C2779      C2780   1.406       .  A
C2779      C2784   1.432       .  A
C2779      H2786   1.083       .  S
C2780      C2781   1.439       .  A
C2781      C2788   1.527       .  S
C2781      C2782   1.417       .  A
C2782      C2783   1.403       .  A
C2782      H2787   1.075       .  S
C2783      C2784   1.434       .  A
C2784      C2785   1.508       .  S
C2785      F2789   1.385       .  S
C2785      F2790   1.369       .  S
C2785      F2791   1.383       .  S
C2788      F2792   1.374       .  S
C2788      F2793   1.382       .  S
C2788      F2794   1.376       .  S
C2795      C2796   1.428       .  A
C2795      C2800   1.452       .  A
C2795      H2802   1.082       .  S
C2796      C2797   1.434       .  A
C2797      C2804   1.511       .  S
C2797      C2798   1.423       .  A
C2798      C2799   1.400       .  A
C2798      H2803   1.078       .  S
C2799      C2800   1.428       .  A
C2800      C2801   1.511       .  S
C2801      F2805   1.384       .  S
C2801      F2806   1.381       .  S
C2801      F2807   1.383       .  S
C2804      F2808   1.379       .  S
C2804      F2809   1.375       .  S
C2804      F2810   1.382       .  S
C2811      C2812   1.414       .  A
C2811      C2816   1.411       .  A
C2811      H2818   1.077       .  S
C2812      C2813   1.438       .  A
C2813      C2820   1.502       .  S
C2813      C2814   1.437       .  A
C2814      C2815   1.412       .  A
C2814      H2819   1.084       .  S
C2815      C2816   1.430       .  A
C2816      C2817   1.521       .  S
C2817      F2821   1.379       .  S
C2817      F2822   1.373       .  S
C2817      F2823   1.371       .  S
C2820      F2824   1.373       .  S
C2820      F2825   1.379       .  S
C2820      F2826   1.384       .  S
C2827      C2828   1.401       .  A
C2827      C2832   1.430       .  A
C2827      H2834   1.083       .  S
C2828      C2829   1.445       .  A
C2829      C2836   1.524       .  S
C2829      C2830   1.434       .  A
C2830      C2831   1.406       .  A
C2830      H2835   1.082       .  S
C2831      C3125   1.550       .  S
C2831      C2832   1.438       .  A
C2832      C2833   1.503       .  S
C2833      F2837   1.385       .  S
C2833      F2838   1.381       .  S
C2833      F2839   1.370       .  S
C2836      F2840   1.382       .  S
C2836      F2841   1.379       .  S
C2836      F2842   1.385       .  S
C2843      C2844   1.417       .  A
C2843      C3286   1.397       .  A
C2843      H3288   1.083       .  S
C2844      C2845   1.422       .  A
C2845      C2852   1.503       .  S
C2845      C2846   1.431       .  A
C2846      C3285   1.417       .  A
C2846      H2851   1.081       .  S
C2847      C3284   1.417       .  A
C2847      C2848   1.422       .  A
C2848      C2849   1.518   1_556  S
C2848      C3281   1.397       .  A
C2849      F2853   1.386   1_554  S
C2849      F2854   1.368   1_554  S
C2849      F2855   1.382       .  S
H2850      C3281   1.083   1_554  S
C2852      F2856   1.370       .  S
C2852      F2857   1.382       .  S
C2852      F2858   1.384       .  S
C2859      C2860   1.406       .  A
C2859      C2864   1.421       .  A
C2859      H2866   1.083       .  S
C2860      C2861   1.421       .  A
C2861      C2868   1.514       .  S
C2861      C2862   1.436       .  A
C2862      C2863   1.416       .  A
C2862      H2867   1.083       .  S
C2863      C2864   1.425       .  A
C2864      C3303   1.508       .  S
C2865      C3302   1.508   1_554  S
C2865      F2869   1.384       .  S
C2865      F2870   1.377       .  S
C2865      F2871   1.379       .  S
C2868      F2872   1.380       .  S
C2868      F2873   1.384       .  S
C2868      F2874   1.369       .  S
C2875      C2876   1.400   1_565  A
C2875      C2880   1.430       .  A
C2875      H2882   1.085       .  S
C2877      C2884   1.504       .  S
C2877      C2878   1.419       .  A
C2878      C2879   1.408       .  A
C2878      H2883   1.085       .  S
C2880      C2881   1.503       .  S
C2881      F2885   1.376       .  S
C2881      F2886   1.373       .  S
C2881      F2887   1.380   1_565  S
C2884      F2888   1.382       .  S
C2884      F2889   1.370       .  S
C2884      F2890   1.384       .  S
C2891      C2892   1.418       .  A
C2891      C2896   1.437       .  A
C2891      H2898   1.082       .  S
C2892      C3079   1.518       .  S
C2892      C2893   1.438       .  A
C2893      C2900   1.528       .  S
C2893      C2894   1.408       .  A
C2894      C2895   1.400       .  A
C2894      H2899   1.086       .  S
C2895      C2896   1.421       .  A
C2897      F2901   1.381       .  S
C2897      F2902   1.382       .  S
C2897      F2903   1.383       .  S
C2900      F2904   1.373       .  S
C2900      F2905   1.384       .  S
C2900      F2906   1.384       .  S
C2907      C2908   1.419       .  A
C2907      C2912   1.440       .  A
C2907      H2914   1.082       .  S
C2909      C2916   1.535       .  S
C2909      C2910   1.399       .  A
C2910      H2915   1.077       .  S
C2911      C2912   1.425       .  A
C2912      C2913   1.514       .  S
C2913      F2917   1.378       .  S
C2913      F2918   1.381       .  S
C2913      F2919   1.374       .  S
C2916      F2920   1.381       .  S
C2916      F2921   1.377       .  S
C2916      F2922   1.383       .  S
C2923      C2924   1.405       .  A
C2923      C2928   1.430       .  A
C2923      H2930   1.078       .  S
C2924      C2925   1.413   1_655  A
C2925      C2926   1.425       .  A
C2926      C2927   1.413   1_455  A
C2927      C2928   1.427       .  A
C2928      C2929   1.500       .  S
C2929      F2933   1.385       .  S
C2929      F2934   1.355       .  S
C2929      F2935   1.383       .  S
C2932      F2936   1.384       .  S
C2932      F2937   1.370       .  S
C2932      F2938   1.377       .  S
C2939      C2940   1.383       .  A
C2939      C2944   1.403       .  A
C2939      H2946   1.076       .  S
C2940      C2941   1.370       .  A
C2941      C2948   1.507       .  S
C2941      C2942   1.383       .  A
C2942      C2943   1.450       .  A
C2942      H2947   1.075       .  S
C2943      C2944   1.428       .  A
C2944      C2945   1.537       .  S
C2945      F2950   1.378       .  S
C2945      F2951   1.365       .  S
C2948      F2952   1.382       .  S
C2948      F2953   1.385       .  S
C2948      F2954   1.383       .  S
C2955      C2956   1.409       .  A
C2955      C2960   1.380       .  A
C2955      H2962   1.068       .  S
C2956      C2957   1.474       .  A
C2957      C2964   1.556       .  S
C2957      C2958   1.363       .  A
C2958      C2959   1.368       .  A
C2958      H2963   1.091       .  S
C2959      C2960   1.391       .  A
C2960      C2961   1.513       .  S
C2961      F2965   1.383       .  S
C2961      F2966   1.383       .  S
C2961      F2967   1.382       .  S
C2964      F2968   1.383       .  S
C2964      F2969   1.366       .  S
C2964      F2970   1.378       .  S
C2971      C2972   1.403       .  A
C2971      C2976   1.384       .  A
C2971      H3416   1.083       .  S
C2972      C2973   1.412       .  A
C2973      C2980   1.527       .  S
C2973      C2974   1.400       .  A
C2974      C2975   1.421       .  A
C2974      H2979   1.080       .  S
C2975      C2976   1.422       .  A
C2976      C2977   1.520       .  S
C2977      F3419   1.386   1_554  S
C2977      F2982   1.382       .  S
C2977      F3421   1.377   1_554  S
H2978      C3409   1.082       .  S
C2980      F2984   1.380       .  S
C2980      F2985   1.376       .  S
C2980      F2986   1.382       .  S
F2981      C3415   1.386       .  S
F2983      C3415   1.378       .  S
C2987      C2988   1.402       .  A
C2987      C2992   1.389       .  A
C2987      H2994   1.086       .  S
C2988      C2989   1.386       .  A
C2989      C2990   1.354       .  A
C2990      C2991   1.426       .  A
C2990      H2995   1.080       .  S
C2991      C2992   1.402       .  A
C2992      C2993   1.517       .  S
C2993      F2998   1.368       .  S
C2993      F2999   1.380   1_554  S
C2996      F3000   1.377       .  S
C2996      F3001   1.381       .  S
C2996      F3002   1.382       .  S
C3003      C3004   1.414       .  A
C3003      C3008   1.410       .  A
C3003      H3010   1.076       .  S
C3004      C3005   1.407       .  A
C3005      C3012   1.514       .  S
C3005      C3006   1.395       .  A
C3006      C3007   1.407       .  A
C3006      H3011   1.074       .  S
C3007      C3008   1.414       .  A
C3008      C3009   1.514       .  S
C3012      F3016   1.381       .  S
C3012      F3017   1.380       .  S
C3012      F3018   1.377       .  S
C3019      C3020   1.403       .  A
C3019      C3024   1.379       .  A
C3019      H3026   1.066       .  S
C3020      C3021   1.440       .  A
C3021      C3028   1.523       .  S
C3021      C3022   1.410       .  A
C3022      C3023   1.397       .  A
C3022      H3027   1.086       .  S
C3023      C3024   1.402       .  A
C3024      C3025   1.516       .  S
C3025      F3029   1.382       .  S
C3025      F3030   1.380       .  S
C3025      F3031   1.366       .  S
C3028      F3032   1.379       .  S
C3028      F3033   1.366       .  S
C3028      F3034   1.384       .  S
C3035      C3036   1.422       .  A
C3035      C3040   1.381       .  A
C3035      H3042   1.070       .  S
C3036      C3037   1.457       .  A
C3037      C3044   1.532       .  S
C3037      C3038   1.403       .  A
C3038      C3039   1.390       .  A
C3038      H3043   1.085       .  S
C3039      C3040   1.391       .  A
C3040      C3041   1.518       .  S
C3041      F3045   1.381       .  S
C3041      F3046   1.379       .  S
C3044      F3048   1.381       .  S
C3044      F3049   1.370       .  S
C3044      F3050   1.382       .  S
C3051      C3052   1.405       .  A
C3051      C3056   1.388       .  A
C3051      H3058   1.082       .  S
C3052      C3053   1.436       .  A
C3053      C3060   1.525       .  S
C3053      C3054   1.412       .  A
C3054      C3055   1.402       .  A
C3054      H3059   1.079       .  S
C3055      C3056   1.409       .  A
C3056      C3057   1.513       .  S
C3057      F3061   1.378       .  S
C3057      F3062   1.385       .  S
C3057      F3063   1.377       .  S
C3060      F3064   1.380       .  S
C3060      F3065   1.352       .  S
C3060      F3066   1.377       .  S
C3067      C3442   1.569       .  S
C3067      C3458   1.549       .  S
C3067      C3474   1.578       .  S
C3067      C3493   1.607       .  S
C3068      C3381   1.542       .  S
C3068      C3394   1.555       .  S
C3068      C3413   1.571       .  S
C3068      C3429   1.506       .  S
O3069      C3077   1.258       .  A
O3070      C3078   1.258       .  A
O3071      C3079   1.327   1_556  A
O3071     Co3091   2.192       .  S
O3072      C3080   1.266   1_455  A
O3072     Co3092   1.921       .  S
O3073     Co3090   1.868       .  S
O3074      C3080   1.315       .  A
O3075     Co3092   2.033   1_655  S
O3076      C3077   1.284       .  A
O3076     Co3091   1.934       .  S
C3077      C3445   1.458       .  S
C3078      C3285   1.515       .  S
C3080      C3365   1.535       .  S
O3081      C3094   1.285       .  A
O3082     Co3090   2.142       .  S
O3083      C3096   1.271       .  A
O3084      C3097   1.260       .  A
O3086      C3096   1.271       .  A
O3086     Co3089   2.033       .  S
O3087      C3094   1.318       .  A
O3088     Co3091   1.886   1_554  S
Co3091     O3093   2.084       .  S
C3094      C3317   1.548       .  S
C3095      C3346   1.514       .  S
C3096      C3298   1.524       .  S
C3097      C3426   1.382       .  S
O3098      C3106   1.243       .  A
O3098     Co3118   1.938       .  S
O3099      C3107   1.277       .  A
O3099     Co3119   2.034       .  S
O3100      C3108   1.268       .  A
O3100     Co3120   2.154       .  S
O3101      C3109   1.249       .  A
O3101     Co3121   1.951       .  S
O3102      C3108   1.231       .  A
O3102     Co3119   2.003       .  S
O3103      C3109   1.288       .  A
O3103     Co3118   2.102       .  S
O3104      C3107   1.261       .  A
O3104     Co3121   1.968       .  S
O3105      C3106   1.288       .  A
O3105     Co3120   1.929       .  S
C3106      C3461   1.460       .  S
C3107      C3250   1.557       .  S
C3108      C3237   1.550       .  S
C3109      C3301   1.527       .  S
O3110      C3123   1.232       .  A
O3111      C3124   1.309       .  A
O3111     Co3119   2.125       .  S
O3112      C3125   1.265       .  A
O3112     Co3120   2.027   1_554  S
O3113      C3126   1.257       .  A
O3114     Co3119   1.923   1_554  S
O3115      C3125   1.287   1_556  A
O3115     Co3118   2.086       .  S
O3116      C3123   1.275       .  A
O3117      C3124   1.263       .  A
O3117     Co3120   1.910       .  S
Co3118     O3122   2.208       .  S
Co3119     O3122   2.112       .  S
Co3120     O3122   2.185       .  S
Co3121     O3122   2.135       .  S
C3123      C3218   1.526       .  S
C3124      C3282   1.534       .  S
C3126      C3410   1.441       .  S
O3127      C3135   1.254       .  A
O3127     Co3147   2.005       .  S
O3128      C3136   1.293       .  A
O3128     Co3148   2.112       .  S
O3129      C3137   1.261       .  A
O3129     Co3149   2.020       .  S
O3130      C3138   1.244       .  A
O3130     Co3150   1.923       .  S
O3131      C3137   1.255       .  A
O3131     Co3148   1.973       .  S
O3132      C3138   1.313       .  A
O3132     Co3147   2.186       .  S
O3133     Co3150   1.944       .  S
O3134      C3135   1.223       .  A
C3135      C3490   1.453       .  S
C3136      C3349   1.532       .  S
C3137      C3202   1.502       .  S
C3138      C3266   1.545       .  S
O3139      C3152   1.262       .  A
O3139     Co3147   1.903       .  S
O3140      C3153   1.279       .  A
O3140     Co3148   2.041       .  S
O3141      C3154   1.292       .  A
O3142      C3155   1.242       .  A
O3143      C3155   1.228       .  A
O3143     Co3148   1.875       .  S
O3144      C3154   1.274       .  A
O3144     Co3147   2.012       .  S
O3145      C3152   1.312       .  A
O3145     Co3150   2.153       .  S
O3146      C3153   1.269       .  A
O3146     Co3149   2.004       .  S
Co3147     O3151   2.116   1_655  S
Co3150     O3151   2.054   1_655  S
C3152      C3189   1.520       .  S
C3153      C3253   1.538       .  S
C3154      C3362   1.542       .  S
C3155      C3397   1.395       .  S
O3156      C3164   1.249       .  A
O3156     Co3176   1.925   1_565  S
O3157     Co3177   1.951       .  S
O3158      C3166   1.256       .  A
O3158     Co3178   2.084       .  S
O3159      C3167   1.251       .  A
O3159     Co3179   1.857       .  S
O3160      C3166   1.251       .  A
O3160     Co3177   2.002       .  S
O3161      C3167   1.321       .  A
O3162      C3165   1.303       .  A
O3162     Co3179   2.082       .  S
O3163      C3164   1.271       .  A
O3163     Co3178   1.970       .  S
C3164      C3477   1.439       .  S
C3166      C3221   1.542       .  S
C3167      C3186   1.499       .  S
O3168      C3181   1.281       .  A
O3169      C3182   1.299       .  A
O3169     Co3177   2.107       .  S
O3170      C3183   1.262       .  A
O3170     Co3178   1.990       .  S
O3171      C3184   1.245       .  A
O3171     Co3179   1.907       .  S
O3172      C3184   1.248       .  A
O3173      C3183   1.298   1_545  A
O3173     Co3176   2.087       .  S
O3174      C3181   1.280       .  A
O3174     Co3179   2.148       .  S
O3175      C3182   1.252       .  A
O3175     Co3178   1.942       .  S
Co3176     O3180   1.997   1_545  S
Co3177     O3180   1.938       .  S
Co3178     O3180   2.102       .  S
C3181      C3234   1.569       .  S
C3182      C3205   1.503       .  S
C3183      C3314   1.533   1_565  S
C3184      C3378   1.451       .  S
C3185      C3186   1.376       .  A
C3185      C3190   1.401       .  A
C3185      H3192   1.083       .  S
C3186      C3187   1.435       .  A
C3187      C3194   1.517       .  S
C3187      C3188   1.431       .  A
C3188      C3189   1.407       .  A
C3188      H3193   1.083       .  S
C3189      C3190   1.421       .  A
C3190      C3191   1.479       .  S
C3191      F3195   1.374       .  S
C3191      F3196   1.380       .  S
C3191      F3197   1.381       .  S
C3194      F3198   1.382       .  S
C3194      F3199   1.384       .  S
C3194      F3200   1.384       .  S
C3201      C3202   1.397       .  A
C3201      C3206   1.399       .  A
C3201      H3208   1.077       .  S
C3202      C3203   1.428       .  A
C3203      C3210   1.515       .  S
C3203      C3204   1.422       .  A
C3204      C3205   1.408       .  A
C3204      H3209   1.079       .  S
C3205      C3206   1.432       .  A
C3206      C3207   1.534       .  S
C3207      F3211   1.385       .  S
C3207      F3212   1.382       .  S
C3207      F3213   1.367       .  S
C3210      F3214   1.383       .  S
C3210      F3215   1.376       .  S
C3210      F3216   1.383       .  S
C3217      C3218   1.406       .  A
C3217      C3222   1.433       .  A
C3217      H3224   1.083       .  S
C3218      C3219   1.439       .  A
C3219      C3226   1.527       .  S
C3219      C3220   1.417       .  A
C3220      C3221   1.403       .  A
C3220      H3225   1.075       .  S
C3221      C3222   1.435       .  A
C3222      C3223   1.508       .  S
C3223      F3227   1.385       .  S
C3223      F3228   1.369       .  S
C3223      F3229   1.383       .  S
C3226      F3230   1.374       .  S
C3226      F3231   1.382       .  S
C3226      F3232   1.376       .  S
C3233      C3234   1.428       .  A
C3233      C3238   1.452       .  A
C3233      H3240   1.082       .  S
C3234      C3235   1.434       .  A
C3235      C3242   1.511       .  S
C3235      C3236   1.423       .  A
C3236      C3237   1.400       .  A
C3236      H3241   1.078       .  S
C3237      C3238   1.428       .  A
C3238      C3239   1.511       .  S
C3239      F3243   1.384       .  S
C3239      F3244   1.381       .  S
C3239      F3245   1.383       .  S
C3242      F3246   1.379       .  S
C3242      F3247   1.375       .  S
C3242      F3248   1.382       .  S
C3249      C3250   1.414       .  A
C3249      C3254   1.411       .  A
C3249      H3256   1.077       .  S
C3250      C3251   1.439       .  A
C3251      C3258   1.502       .  S
C3251      C3252   1.437       .  A
C3252      C3253   1.412       .  A
C3252      H3257   1.084       .  S
C3253      C3254   1.430       .  A
C3254      C3255   1.520       .  S
C3255      F3259   1.379       .  S
C3255      F3260   1.373       .  S
C3255      F3261   1.371       .  S
C3258      F3262   1.373       .  S
C3258      F3263   1.379       .  S
C3258      F3264   1.384       .  S
C3265      C3266   1.401       .  A
C3265      C3270   1.430       .  A
C3265      H3272   1.083       .  S
C3266      C3267   1.445       .  A
C3267      C3274   1.524       .  S
C3267      C3268   1.434       .  A
C3268      C3269   1.407       .  A
C3268      H3273   1.082       .  S
C3269      C3270   1.438       .  A
C3270      C3271   1.503       .  S
C3271      F3275   1.385       .  S
C3271      F3276   1.380       .  S
C3271      F3277   1.370       .  S
C3274      F3278   1.382       .  S
C3274      F3279   1.379       .  S
C3274      F3280   1.385       .  S
C3281      C3282   1.416       .  A
C3282      C3283   1.422       .  A
C3283      C3290   1.502       .  S
C3283      C3284   1.431       .  A
C3284      H3289   1.081       .  S
C3285      C3286   1.422       .  A
C3286      C3287   1.520       .  S
C3287      F3291   1.386       .  S
C3287      F3292   1.368       .  S
C3287      F3293   1.382       .  S
C3290      F3294   1.370       .  S
C3290      F3295   1.382       .  S
C3290      F3296   1.384       .  S
C3297      C3298   1.406       .  A
C3297      C3302   1.421       .  A
C3297      H3304   1.083   1_556  S
C3298      C3299   1.421       .  A
C3299      C3306   1.514       .  S
C3299      C3300   1.436       .  A
C3300      C3301   1.416       .  A
C3300      H3305   1.083       .  S
C3301      C3302   1.425       .  A
C3303      F3307   1.384       .  S
C3303      F3308   1.377       .  S
C3303      F3309   1.379       .  S
C3306      F3310   1.380       .  S
C3306      F3311   1.384       .  S
C3306      F3312   1.368       .  S
C3313      C3314   1.400   1_565  A
C3313      C3318   1.430       .  A
C3313      H3320   1.085       .  S
C3315      C3322   1.504       .  S
C3315      C3316   1.419       .  A
C3316      C3317   1.408       .  A
C3316      H3321   1.085       .  S
C3318      C3319   1.503       .  S
C3319      F3323   1.376       .  S
C3319      F3324   1.373       .  S
C3319      F3325   1.380   1_565  S
C3322      F3326   1.383       .  S
C3322      F3327   1.370       .  S
C3322      F3328   1.384       .  S
C3329      C3330   1.418       .  A
C3329      C3334   1.437       .  A
C3329      H3336   1.082       .  S
C3330      C3331   1.438       .  A
C3331      C3338   1.528       .  S
C3331      C3332   1.408       .  A
C3332      C3333   1.400       .  A
C3332      H3337   1.086       .  S
C3333      C3334   1.421       .  A
C3335      F3339   1.381       .  S
C3335      F3340   1.382       .  S
C3335      F3341   1.383       .  S
C3338      F3342   1.373       .  S
C3338      F3343   1.384       .  S
C3338      F3344   1.384       .  S
C3345      C3346   1.418       .  A
C3345      C3350   1.439       .  A
C3345      H3352   1.082       .  S
C3347      C3354   1.535       .  S
C3347      C3348   1.399       .  A
C3348      H3353   1.077       .  S
C3349      C3350   1.425       .  A
C3350      C3351   1.514       .  S
C3351      F3355   1.378       .  S
C3351      F3356   1.381       .  S
C3351      F3357   1.374       .  S
C3354      F3358   1.381       .  S
C3354      F3359   1.377       .  S
C3354      F3360   1.383       .  S
C3361      C3362   1.405       .  A
C3361      C3366   1.430       .  A
C3361      H3368   1.078       .  S
C3362      C3363   1.412   1_655  A
C3363      C3364   1.424       .  A
C3364      C3365   1.413   1_455  A
C3365      C3366   1.427       .  A
C3366      C3367   1.500       .  S
C3367      F3371   1.385       .  S
C3367      F3372   1.357       .  S
C3367      F3373   1.383       .  S
C3370      F3374   1.384       .  S
C3370      F3375   1.370       .  S
C3370      F3376   1.377       .  S
C3377      C3378   1.382       .  A
C3377      C3382   1.403       .  A
C3377      H3384   1.076       .  S
C3378      C3379   1.370       .  A
C3379      C3386   1.506       .  S
C3379      C3380   1.382       .  A
C3380      C3381   1.450       .  A
C3380      H3385   1.076       .  S
C3381      C3382   1.429       .  A
C3382      C3383   1.537       .  S
C3383      F3388   1.378       .  S
C3383      F3389   1.365       .  S
C3386      F3390   1.382       .  S
C3386      F3391   1.385       .  S
C3386      F3392   1.383       .  S
C3393      C3394   1.410       .  A
C3393      C3398   1.381       .  A
C3393      H3400   1.068       .  S
C3394      C3395   1.473       .  A
C3395      C3402   1.556       .  S
C3395      C3396   1.362       .  A
C3396      C3397   1.368       .  A
C3396      H3401   1.091       .  S
C3397      C3398   1.391       .  A
C3398      C3399   1.513       .  S
C3399      F3403   1.383       .  S
C3399      F3404   1.383       .  S
C3399      F3405   1.382       .  S
C3402      F3406   1.383       .  S
C3402      F3407   1.366       .  S
C3402      F3408   1.378       .  S
C3409      C3410   1.403       .  A
C3409      C3414   1.385       .  A
C3410      C3411   1.411       .  A
C3411      C3418   1.527       .  S
C3411      C3412   1.400       .  A
C3412      C3413   1.422       .  A
C3412      H3417   1.080       .  S
C3413      C3414   1.423       .  A
C3414      C3415   1.519       .  S
C3415      F3420   1.381       .  S
C3418      F3422   1.380       .  S
C3418      F3423   1.376       .  S
C3418      F3424   1.382       .  S
C3425      C3426   1.401       .  A
C3425      C3430   1.389       .  A
C3425      H3432   1.086       .  S
C3426      C3427   1.386       .  A
C3427      C3428   1.355       .  A
C3428      C3429   1.428       .  A
C3428      H3433   1.079       .  S
C3429      C3430   1.405       .  A
C3430      C3431   1.517       .  S
C3431      F3436   1.367       .  S
C3431      F3437   1.380       .  S
C3434      F3438   1.376       .  S
C3434      F3439   1.380       .  S
C3434      F3440   1.382       .  S
C3441      C3442   1.414       .  A
C3441      C3446   1.410       .  A
C3441      H3448   1.076       .  S
C3442      C3443   1.407       .  A
C3443      C3450   1.514       .  S
C3443      C3444   1.394       .  A
C3444      C3445   1.407       .  A
C3444      H3449   1.074       .  S
C3445      C3446   1.414       .  A
C3446      C3447   1.514       .  S
C3450      F3454   1.381       .  S
C3450      F3455   1.380       .  S
C3450      F3456   1.377       .  S
C3457      C3458   1.403       .  A
C3457      C3462   1.379       .  A
C3457      H3464   1.062       .  S
C3458      C3459   1.440       .  A
C3459      C3466   1.523       .  S
C3459      C3460   1.410       .  A
C3460      C3461   1.397       .  A
C3460      H3465   1.086       .  S
C3461      C3462   1.402       .  A
C3462      C3463   1.516       .  S
C3463      F3467   1.382       .  S
C3463      F3468   1.380       .  S
C3463      F3469   1.365       .  S
C3466      F3470   1.379       .  S
C3466      F3471   1.366       .  S
C3466      F3472   1.384       .  S
C3473      C3474   1.423       .  A
C3473      C3478   1.381       .  A
C3473      H3480   1.070       .  S
C3474      C3475   1.457       .  A
C3475      C3482   1.532       .  S
C3475      C3476   1.403       .  A
C3476      C3477   1.390       .  A
C3476      H3481   1.085       .  S
C3477      C3478   1.391       .  A
C3478      C3479   1.518       .  S
C3479      F3483   1.381       .  S
C3479      F3484   1.379       .  S
C3482      F3486   1.381       .  S
C3482      F3487   1.370       .  S
C3482      F3488   1.382       .  S
C3489      C3490   1.405       .  A
C3489      C3494   1.388       .  A
C3489      H3496   1.082       .  S
C3490      C3491   1.436       .  A
C3491      C3498   1.525       .  S
C3491      C3492   1.412       .  A
C3492      C3493   1.403       .  A
C3492      H3497   1.079       .  S
C3493      C3494   1.409       .  A
C3494      C3495   1.513       .  S
C3495      F3499   1.377       .  S
C3495      F3500   1.385       .  S
C3495      F3501   1.376       .  S
C3498      F3502   1.379       .  S
C3498      F3503   1.352       .  S
C3498      F3504   1.377       .  S
