geometry optimzed in LAMMPS
_audit_creation_date              2020-12-01 
_audit_creation_method            'lammps2cif' 
_symmetry_space_group_name_H-M    'P1' 
_symmetry_Int_Tables_number       1 
_symmetry_cell_setting            triclinic 
loop_ 
_symmetry_equiv_pos_as_xyz 
  x,y,z 
_cell_length_a                    36.20736032 
_cell_length_b                    34.717124993313625 
_cell_length_c                    36.44469940070782 
_cell_angle_alpha                 93.9465766479559 
_cell_angle_beta                  89.19436395346295 
_cell_angle_gamma                 90.47153708072757 
loop_ 
_atom_site_label 
_atom_site_type_symbol 
_atom_site_fract_x 
_atom_site_fract_y 
_atom_site_fract_z 
_atom_site_charge 
C1          C  0.19920134  0.20509616  0.21452942     0.86600
C2          C  0.22738775  0.23100898  0.19515969    -0.53700
C3          C  0.24712886  0.25638756  0.21801156     0.09500
C4          C  0.23711632  0.25269402  0.25911096     0.20500
C5          C  0.22411586  0.18506594  0.24163415    -0.54400
C6          C  0.24378273  0.20957499  0.26533232     0.09600
C7          C  0.17543924  0.23311928  0.23902909    -0.53900
C8          C  0.19475871  0.25802640  0.26226469     0.10200
H9          H  0.23183549  0.22877828  0.16556960     0.14700
H10         H  0.25245833  0.27320511  0.27805584     0.00400
H11         H  0.22861083  0.15428666  0.24055369     0.15000
H12         H  0.14546799  0.23309710  0.23815169     0.14800
C13         C  0.09936315  0.47295664  0.44023757     0.30100
C14         C  0.09697120  0.54719194  0.47403636     0.30100
C15         C  0.11846245  0.50468864  0.41989451    -0.06100
C16         C  0.06012742  0.49096339  0.44541129    -0.06900
C17         C  0.11456847  0.47858819  0.47930058    -0.06800
C18         C  0.11897225  0.54203658  0.43693357    -0.06100
C19         C  0.05916995  0.52837568  0.46341912    -0.06900
C20         C  0.11451771  0.51582033  0.49590033    -0.06800
C21         C  0.13088657  0.56543921  0.40973257    -0.32100
N22         N  0.13439163  0.54408084  0.37727600     0.14400
C23         C  0.12639267  0.50705121  0.38310030    -0.32100
H24         H  0.12366035  0.48404074  0.36168397     0.16300
C25         C  0.02264973  0.53957581  0.46577272    -0.31100
N26         N  0.00150287  0.51100470  0.44954516     0.13100
C27         C  0.02396555  0.48233977  0.43537389    -0.31100
C28         C  0.12969994  0.51374166  0.53032622    -0.31400
N29         N  0.13743911  0.47630644  0.53522452     0.13600
H30         H  0.13398833  0.53730592  0.55083421     0.16200
C31         C  0.12821565  0.45460553  0.50431498    -0.31400
H32         H  0.13078760  0.42353199  0.50056183     0.16200
H33         H  0.01436129  0.45810947  0.41827878     0.16200
H34         H  0.13532692  0.59610771  0.41211700     0.16300
H35         H  0.01222102  0.56677642  0.47804100     0.16200
C36         C  0.20792411  0.80655150  0.69801922     0.86600
C37         C  0.23228206  0.78005859  0.71886241    -0.53700
C38         C  0.25408034  0.75607623  0.69735292     0.09500
C39         C  0.24892669  0.75968108  0.65532163     0.20500
C40         C  0.23476588  0.82678345  0.67207471    -0.54400
C41         C  0.25644776  0.80276448  0.64941680     0.09600
C42         C  0.18604349  0.77702701  0.67234085    -0.53900
C43         C  0.20716865  0.75331269  0.64875472     0.10200
H44         H  0.23224928  0.78003579  0.74869032     0.14700
H45         H  0.26563630  0.74012248  0.63704267     0.00400
H46         H  0.23715900  0.85799747  0.67272791     0.15000
H47         H  0.15654909  0.77268305  0.67376828     0.14800
C48         C  0.44908967  0.13830095  0.43929845     0.30100
C49         C  0.50680593  0.12982381  0.48664319     0.30100
C50         C  0.44876803  0.16459857  0.47505596    -0.06100
C51         C  0.45327777  0.09758791  0.45353180    -0.06900
C52         C  0.48849125  0.14395307  0.42312048    -0.06800
C53         C  0.47833599  0.16048131  0.49877197    -0.06100
C54         C  0.48284112  0.09347248  0.47796611    -0.06900
C55         C  0.51761471  0.13961228  0.44715934    -0.06800
C56         C  0.46587906  0.17106548  0.53391673    -0.32100
N57         N  0.43012934  0.18123459  0.53264031     0.14400
C58         C  0.41919481  0.17677241  0.49720676    -0.32100
H59         H  0.39067771  0.17746417  0.48874882     0.16300
C60         C  0.49190847  0.05488206  0.47562220    -0.31100
N61         N  0.46799683  0.03559474  0.45301222     0.13100
C62         C  0.44629971  0.06098330  0.43731941    -0.31100
C63         C  0.55001499  0.14412928  0.42736845    -0.31400
N64         N  0.54157193  0.15207559  0.39252244     0.13600
H65         H  0.57780081  0.14291144  0.43776368     0.16200
C66         C  0.50419768  0.15115893  0.38930654    -0.31400
H67         H  0.48956663  0.15655371  0.36450438     0.16200
H68         H  0.42855693  0.05357850  0.41421628     0.16200
H69         H  0.48024418  0.16656828  0.55909622     0.16300
H70         H  0.51546581  0.04192969  0.48780549     0.16200
C71         C  0.76845677  0.25283435  0.15724787     0.86600
C72         C  0.78931608  0.28280062  0.18283515    -0.53700
C73         C  0.76801545  0.30640009  0.20615432     0.09500
C74         C  0.72621712  0.29843678  0.19964399     0.20500
C75         C  0.74347670  0.23190483  0.18445903    -0.54400
C76         C  0.72101981  0.25527096  0.20666358     0.09600
C77         C  0.74229164  0.27690355  0.13588585    -0.53900
C78         C  0.72010886  0.30091443  0.15733516     0.10200
H79         H  0.81901081  0.28414678  0.18380645     0.14700
H80         H  0.70789694  0.31665900  0.21757840     0.00400
H81         H  0.74377997  0.20084995  0.18619117     0.15000
H82         H  0.74150564  0.27528600  0.10603374     0.14800
C83         C  0.18947572  0.25276894  0.77237000     0.86600
C84         C  0.17543679  0.28740562  0.75293040    -0.53700
C85         C  0.20193817  0.30779836  0.73532617     0.09500
C86         C  0.24138152  0.29253221  0.74124955     0.20500
C87         C  0.21344270  0.22906272  0.74367621    -0.54400
C88         C  0.24030015  0.24966891  0.72697463     0.09600
C89         C  0.21868141  0.26992511  0.79939115    -0.53900
C90         C  0.24505162  0.29186135  0.78354122     0.10200
H91         H  0.14636516  0.29480015  0.75287189     0.14700
H92         H  0.26384722  0.30849284  0.72786506     0.00400
H93         H  0.21035319  0.19822160  0.73783620     0.15000
H94         H  0.21865805  0.26561826  0.82857999     0.14800
C95         C  0.86352052  0.53582728  0.47716347     0.30100
C96         C  0.86742118  0.48511556  0.41443529     0.30100
C97         C  0.84770818  0.54963277  0.44165796    -0.06100
C98         C  0.90324214  0.52340833  0.46372100    -0.06900
C99         C  0.84563451  0.49584615  0.47978294    -0.06800
C100        C  0.84847504  0.52415604  0.41029270    -0.06100
C101        C  0.90472364  0.49812916  0.43154767    -0.06900
C102        C  0.84576386  0.47099018  0.44804902    -0.06800
C103        C  0.83484414  0.54428988  0.38209333    -0.32100
N104        N  0.82816178  0.58107858  0.39527243     0.14400
C105        C  0.83590948  0.58474399  0.43146250    -0.32100
H106        H  0.83474290  0.61146434  0.44859380     0.16300
C107        C  0.94136975  0.49091463  0.42304940    -0.31100
N108        N  0.96239986  0.51026822  0.44881495     0.13100
C109        C  0.93973280  0.52861467  0.47442034    -0.31100
C110        C  0.82710110  0.43798569  0.45723716    -0.31400
N111        N  0.81912371  0.44097709  0.49367512     0.13600
H112        H  0.82111851  0.41249305  0.43961650     0.16200
C113        C  0.83038900  0.47605645  0.50787886    -0.31400
H114        H  0.82887792  0.48581495  0.53670952     0.16200
H115        H  0.94945632  0.54287341  0.49960030     0.16200
H116        H  0.83175903  0.53399298  0.35363674     0.16300
H117        H  0.95188452  0.47317945  0.39961286     0.16200
C118        C  0.76726014  0.84165459  0.19200054     0.86600
C119        C  0.73820481  0.82011309  0.16736253    -0.53700
C120        C  0.71420008  0.79702660  0.18511765     0.09500
C121        C  0.72056396  0.79876332  0.22695594     0.20500
C122        C  0.74292489  0.86439611  0.22116138    -0.54400
C123        C  0.71824745  0.84214323  0.23962389     0.09600
C124        C  0.78545413  0.81098572  0.21375346    -0.53900
C125        C  0.76146863  0.78840098  0.23172245     0.10200
H126        H  0.73659912  0.82357199  0.13805877     0.14700
H127        H  0.70117772  0.77984418  0.24133332     0.00400
H128        H  0.74311134  0.89527094  0.22603944     0.15000
H129        H  0.81519991  0.80795778  0.21558060     0.14800
C130        C  0.76702030  0.18758899  0.70706620     0.86600
C131        C  0.74240146  0.21600828  0.73067481    -0.53700
C132        C  0.71573396  0.23408042  0.71206399     0.09500
C133        C  0.71618092  0.22157561  0.67053237     0.20500
C134        C  0.73784326  0.15958860  0.68843769    -0.54400
C135        C  0.71167555  0.17730736  0.66858789     0.09600
C136        C  0.78230683  0.21121907  0.67626037    -0.53900
C137        C  0.75615347  0.22941638  0.65743981     0.10200
H138        H  0.74531147  0.22086588  0.76014861     0.14700
H139        H  0.69482134  0.23529503  0.65443308     0.00400
H140        H  0.73695635  0.12879218  0.69167195     0.15000
H141        H  0.81169054  0.21493805  0.67103486     0.14800
C142        C  0.45519779  0.89276350  0.47105372     0.30100
C143        C  0.51092250  0.90073781  0.41928431     0.30100
C144        C  0.44949247  0.87165108  0.43304561    -0.06100
C145        C  0.46223189  0.93412425  0.45896424    -0.06900
C146        C  0.49391882  0.87999088  0.48146319    -0.06800
C147        C  0.47817887  0.87383024  0.40721873    -0.06100
C148        C  0.49098312  0.93775792  0.43320446    -0.06900
C149        C  0.52216770  0.88328830  0.45543588    -0.06800
C150        C  0.46528499  0.85556139  0.37484907    -0.32100
N151        N  0.42918105  0.84637306  0.37962983     0.14400
C152        C  0.41898394  0.85702475  0.41456316    -0.32100
H153        H  0.39095704  0.85583868  0.42518361     0.16300
C154        C  0.49406254  0.97591277  0.42600996    -0.31100
N155        N  0.46758031  0.99548257  0.44568905     0.13100
C156        C  0.44762168  0.97064836  0.46545177    -0.31100
C157        C  0.55377040  0.86921788  0.47078718    -0.31400
N158        N  0.54543464  0.85902992  0.50538207     0.13600
H159        H  0.58087046  0.86678687  0.45798571     0.16200
C160        C  0.50896665  0.86540072  0.51198205    -0.31400
H161        H  0.49448553  0.85988984  0.53730159     0.16200
H162        H  0.42521928  0.97908846  0.48415060     0.16200
H163        H  0.47988191  0.85146115  0.34884485     0.16300
H164        H  0.51477459  0.98883196  0.40892481     0.16200
C165        C  0.20115630  0.76504202  0.13681298     0.86600
C166        C  0.18198992  0.73648082  0.16178172    -0.53700
C167        C  0.20499986  0.71309758  0.17945085     0.09500
C168        C  0.24606590  0.71978525  0.16941258     0.20500
C169        C  0.22969393  0.78656176  0.16130824    -0.54400
C170        C  0.25292918  0.76340196  0.17874918     0.09600
C171        C  0.22417710  0.73749850  0.11000214    -0.53900
C172        C  0.24819281  0.71412342  0.12694654     0.10200
H173        H  0.15238472  0.73365647  0.16429727     0.14700
H174        H  0.26530527  0.70075142  0.18303346     0.00400
H175        H  0.23061585  0.81784387  0.16546837     0.15000
H176        H  0.22137666  0.73620796  0.08034073     0.14800
C177        C  0.75438255  0.75800584  0.74691818     0.86600
C178        C  0.77948095  0.73186312  0.72135328    -0.53700
C179        C  0.76154077  0.70638734  0.69746795     0.09500
C180        C  0.71882177  0.70977264  0.70090557     0.20500
C181        C  0.73037757  0.77771550  0.71891614    -0.54400
C182        C  0.71101507  0.75294757  0.69513064     0.09600
C183        C  0.72779974  0.73051246  0.76548486    -0.53900
C184        C  0.70912553  0.70489046  0.74213696     0.10200
H185        H  0.80929212  0.73487634  0.72033538     0.14700
H186        H  0.70401081  0.68914664  0.68162001     0.00400
H187        H  0.72929837  0.80878310  0.71736038     0.15000
H188        H  0.72362984  0.73182596  0.79511220     0.14800
C189        C  0.51996922  0.48141466  0.07477795     0.30100
C190        C  0.46019232  0.53045951  0.07320504     0.30100
C191        C  0.52366827  0.52073077  0.09631555    -0.06100
C192        C  0.50932372  0.49388924  0.03576158    -0.06900
C193        C  0.48227075  0.46576912  0.08749828    -0.06800
C194        C  0.49344273  0.54550040  0.09578313    -0.06100
C195        C  0.47974163  0.52030618  0.03566580    -0.06900
C196        C  0.45263122  0.49073937  0.08718349    -0.06800
C197        C  0.50721682  0.58251512  0.10186694    -0.32100
N198        N  0.54413727  0.58112419  0.10656184     0.14400
C199        C  0.55452851  0.54379453  0.10185562    -0.32100
H200        H  0.58290641  0.53426785  0.09963824     0.16300
C201        C  0.47470643  0.52918584  0.99985930    -0.31100
N202        N  0.49777122  0.50723753  0.97783322     0.13100
C203        C  0.51793828  0.48455935  0.99885397    -0.31100
C204        C  0.42214281  0.47192727  0.10020356    -0.31400
N205        N  0.43239150  0.43616150  0.10867003     0.13600
H206        H  0.39458397  0.48357102  0.10386722     0.16200
C207        C  0.46886877  0.43177965  0.10042592    -0.31400
H208        H  0.48472540  0.40625655  0.10483840     0.16200
H209        H  0.53602434  0.46185702  0.98786366     0.16200
H210        H  0.49160842  0.60883266  0.10066430     0.16300
H211        H  0.45439288  0.54858474  0.99007195     0.16200
C212        C  0.50843006  0.52784097  0.84132072     0.30100
C213        C  0.44806497  0.47993450  0.84978286     0.30100
C214        C  0.51315259  0.48515692  0.82804417    -0.06100
C215        C  0.49581268  0.52278616  0.88195394    -0.06900
C216        C  0.47263025  0.53917849  0.82352648    -0.06800
C217        C  0.48272785  0.46102334  0.83231452    -0.06100
C218        C  0.46478581  0.49790273  0.88615997    -0.06900
C219        C  0.44239450  0.51547178  0.82816696    -0.06800
C220        C  0.49550404  0.42364354  0.82973700    -0.32100
N221        N  0.53223380  0.42442079  0.82219101     0.14400
C222        C  0.54345902  0.46173356  0.82249672    -0.32100
H223        H  0.57182580  0.47118468  0.81935705     0.16300
C224        C  0.46657782  0.48550015  0.92136073    -0.31100
N225        N  0.49501344  0.50348155  0.93922484     0.13100
C226        C  0.51383797  0.52506500  0.91546416    -0.31100
C227        C  0.41237662  0.53295941  0.81390340    -0.31400
N228        N  0.42396365  0.56639968  0.80038349     0.13600
H229        H  0.38397958  0.52298964  0.81460402     0.16200
C230        C  0.46067085  0.57075561  0.80622392    -0.31400
H231        H  0.47690710  0.59585988  0.80000478     0.16200
H232        H  0.53918928  0.54061695  0.92193646     0.16200
H233        H  0.47943464  0.39781488  0.83378751     0.16300
H234        H  0.44920812  0.46397873  0.93317379     0.16200
O235        O  0.02519590  0.04347584  0.01087759    -0.80000
O236        O  0.95139910  0.01986061  0.86369365    -0.80100
O237        O  0.03129130  0.06312045  0.93489171    -0.80100
O238        O  0.94436275  0.06641225  0.98151443    -0.80000
O239        O  0.02406063  0.03210945  0.88016662    -0.80100
O240        O  0.95316232  0.02950364  0.02573685    -0.80100
O241        O  0.93865476  0.06308247  0.90802349    -0.80000
O242        O  0.07731108  0.03048943  0.98265270    -0.80100
C243        C  0.06079208  0.04695980  0.00992092     1.09700
C244        C  0.93758075  0.05192210  0.87456568     1.09500
C245        C  0.03391801  0.06205646  0.90029712     1.09700
C246        C  0.94061447  0.06097573  0.01504308     1.09600
O247        O  0.95541668  0.95238718  0.98979172    -0.80000
O248        O  0.02618811  0.94934953  0.89901495    -0.80100
O249        O  0.03956924  0.96261807  0.98411277    -0.80100
O250        O  0.90558856  0.98573055  0.90819816    -0.80000
O251        O  0.95119371  0.94563101  0.89128448    -0.80100
O252        O  0.01033095  0.97551521  0.03746686    -0.80000
O253        O  0.90931099  0.99150122  0.98351677    -0.80000
O254        O  0.06672893  0.99138187  0.91738398    -0.80100
Co255      Co  0.99049453  0.99634855  0.99529048     1.51500
Co256      Co  0.98835574  0.98726401  0.88753315     1.51700
Co257      Co  0.03299418  0.01415510  0.95832663     1.51600
Co258      Co  0.92794347  0.02600909  0.94516978     1.51500
O259        O  0.98029808  0.00540293  0.94170506    -1.42000
C260        C  0.92180603  0.96078500  0.99552927     1.09600
C261        C  0.05892204  0.96116039  0.89770363     1.09700
C262        C  0.03457475  0.95625012  0.01855492     1.09600
C263        C  0.91701960  0.95345911  0.89331269     1.09600
C264        C  0.77539791  0.78565001  0.77524255     0.01400
C265        C  0.75968850  0.82072335  0.79075802     0.04300
C266        C  0.78148699  0.84834502  0.81118330    -0.11800
C267        C  0.81888595  0.84098642  0.81780061     0.23600
C268        C  0.83309821  0.80419230  0.80709352    -0.12400
C269        C  0.81055494  0.77581380  0.78880138     0.05000
C270        C  0.84248896  0.87090181  0.83804028     0.27400
C271        C  0.85468532  0.90383775  0.82058912    -0.13100
C272        C  0.87723828  0.93178308  0.83948981     0.05500
C273        C  0.89017563  0.92578073  0.87508277    -0.09000
C274        C  0.87837472  0.89253999  0.89225917     0.06300
C275        C  0.85312160  0.86639333  0.87463945    -0.13400
Br276      Br  0.88384541  0.79247049  0.81717941    -0.05500
Br277      Br  0.70734471  0.82910987  0.79083793     0.00200
Br278      Br  0.89078824  0.97782625  0.81580132     0.00600
Br279      Br  0.83210357  0.82500971  0.90108150    -0.03800
Br280      Br  0.82495544  0.72250849  0.79120486     0.00700
Br281      Br  0.75992822  0.89618523  0.83130146    -0.03100
Br282      Br  0.84109678  0.91028821  0.77031699    -0.04000
Br283      Br  0.89764545  0.88186020  0.93937486     0.00000
C284        C  0.54063475  0.55452744  0.82996924     0.01400
C285        C  0.55766007  0.54812827  0.79437255     0.04300
C286        C  0.58860220  0.56998560  0.78433845    -0.11800
C287        C  0.59928375  0.60301942  0.80607240     0.23600
C288        C  0.57940555  0.61312992  0.83883804    -0.12400
C289        C  0.54958637  0.58979504  0.85022601     0.05000
C290        C  0.62738661  0.62986544  0.79092796     0.27400
C291        C  0.66449841  0.62924351  0.80177183    -0.13100
C292        C  0.69127536  0.65273110  0.78525379     0.05500
C293        C  0.68142473  0.67657603  0.75671348    -0.09000
C294        C  0.64424360  0.67537067  0.74481778     0.06300
C295        C  0.61735058  0.65342321  0.76276781    -0.13400
Br296      Br  0.59218699  0.66019538  0.86716797    -0.05500
Br297      Br  0.53488203  0.51634089  0.75483299     0.00200
Br298      Br  0.74192999  0.64979950  0.80069647     0.00600
Br299      Br  0.56600481  0.65576518  0.74910449    -0.03800
Br300      Br  0.51647202  0.61181544  0.88783934     0.00700
Br301      Br  0.61574356  0.55566483  0.73939785    -0.03100
Br302      Br  0.67841760  0.59551301  0.83910097    -0.04000
Br303      Br  0.62868838  0.70270465  0.70370328     0.00000
C304        C  0.05664876  0.92653654  0.03565102     0.01400
C305        C  0.05943026  0.88865861  0.01895355     0.04300
C306        C  0.08213070  0.86131398  0.03437677    -0.11800
C307        C  0.10211112  0.87155243  0.06653995     0.23600
C308        C  0.09889091  0.90915253  0.08354324    -0.12400
C309        C  0.07580514  0.93631004  0.06857200     0.05000
C310        C  0.12635159  0.84299449  0.08303880     0.27400
C311        C  0.11487809  0.82598840  0.11518028    -0.13100
C312        C  0.13990586  0.80455218  0.13479228     0.05500
C313        C  0.17508384  0.79378748  0.11901823    -0.09000
C314        C  0.18722375  0.81411990  0.08832906     0.06300
C315        C  0.16274328  0.83750995  0.07000003    -0.13400
Br316      Br  0.12691981  0.92373175  0.12714228    -0.05500
Br317      Br  0.02989104  0.87308229  0.97666294     0.00200
Br318      Br  0.12882268  0.80227563  0.18675755     0.00600
Br319      Br  0.17931854  0.86356009  0.02746645    -0.03800
Br320      Br  0.07129936  0.98713730  0.09326304     0.00700
Br321      Br  0.08586821  0.80962543  0.01170901    -0.03100
Br322      Br  0.06485567  0.83392789  0.13330524    -0.04000
Br323      Br  0.23869994  0.81721265  0.07499865     0.00000
C324        C  0.42538461  0.55644135  0.07571118     0.01400
C325        C  0.41753201  0.58066797  0.10805329     0.04300
C326        C  0.38931604  0.60830295  0.10829322    -0.11800
C327        C  0.36471750  0.60853868  0.07883221     0.23600
C328        C  0.36829404  0.58032651  0.04936304    -0.12400
C329        C  0.39723831  0.55311327  0.04875582     0.05000
C330        C  0.33135374  0.63356418  0.08310634     0.27400
C331        C  0.30013020  0.62013836  0.10182109    -0.13100
C332        C  0.27196157  0.64587365  0.11399778     0.05500
C333        C  0.27409597  0.68550611  0.10712187    -0.09000
C334        C  0.30367283  0.69777534  0.08458627     0.06300
C335        C  0.33244890  0.67204543  0.07330198    -0.13400
Br336      Br  0.33236142  0.57811392  0.01067979    -0.05500
Br337      Br  0.43727336  0.57019753  0.15548968     0.00200
Br338      Br  0.23059335  0.62539959  0.13966633     0.00600
Br339      Br  0.37479382  0.68968252  0.04626986    -0.03800
Br340      Br  0.39184794  0.50662221  0.01693545     0.00700
Br341      Br  0.38295841  0.64486858  0.15033507    -0.03100
Br342      Br  0.29710638  0.56637414  0.11247601    -0.04000
Br343      Br  0.30736537  0.75029913  0.07131162     0.00000
C344        C  0.57046368  0.84419639  0.53136889     0.01400
C345        C  0.56419184  0.80732452  0.54429882     0.04300
C346        C  0.58614785  0.79412638  0.57236200    -0.11800
C347        C  0.61594676  0.81675967  0.58630312     0.23600
C348        C  0.62266127  0.85342711  0.57314569    -0.12400
C349        C  0.59953739  0.86740074  0.54629316     0.05000
C350        C  0.64061224  0.80124355  0.61405774     0.27400
C351        C  0.63459457  0.81049476  0.65178180    -0.13100
C352        C  0.65639850  0.79354351  0.67804310     0.05500
C353        C  0.68533005  0.76766598  0.66690629    -0.09000
C354        C  0.68991266  0.75741411  0.62874818     0.06300
C355        C  0.66832739  0.77481997  0.60263087    -0.13400
Br356      Br  0.66313887  0.88467888  0.59257461    -0.05500
Br357      Br  0.52622230  0.77434205  0.52252799     0.00200
Br358      Br  0.64245283  0.80218305  0.72903500     0.00600
Br359      Br  0.67665519  0.76282750  0.55057185    -0.03800
Br360      Br  0.60627007  0.91924744  0.53196219     0.00700
Br361      Br  0.57485328  0.74544428  0.59265702    -0.03100
Br362      Br  0.59574068  0.84609430  0.66722710    -0.04000
Br363      Br  0.72406371  0.71858662  0.61066115     0.00000
C364        C  0.40393095  0.83522215  0.35092296     0.01400
C365        C  0.39574508  0.79603661  0.34263821     0.04300
C366        C  0.36941694  0.78527341  0.31576374    -0.11800
C367        C  0.35325386  0.81376171  0.29534571     0.23600
C368        C  0.36223126  0.85302493  0.30323692    -0.11400
C369        C  0.38621882  0.86374057  0.33213590     0.05000
C370        C  0.32765782  0.80245425  0.26500038     0.27400
C371        C  0.34155174  0.78406034  0.23215733    -0.13100
C372        C  0.31726747  0.77115682  0.20412837     0.05500
C373        C  0.27914234  0.77915120  0.20739347    -0.09000
C374        C  0.26562888  0.80010183  0.23955651     0.06300
C375        C  0.28961723  0.81017678  0.26881618    -0.13400
Br376      Br  0.34260274  0.89205202  0.27383775    -0.05500
Br377      Br  0.42086107  0.75764720  0.36844369     0.00200
Br378      Br  0.33716078  0.74273582  0.16155876     0.00600
Br379      Br  0.27014145  0.83250204  0.31507765    -0.03800
Br380      Br  0.39376447  0.91743056  0.34726368     0.00700
Br381      Br  0.35516653  0.73173874  0.30728965    -0.03100
Br382      Br  0.39420001  0.77682229  0.22554888    -0.04000
Br383      Br  0.21360203  0.81111541  0.24609274     0.00000
C384        C  0.79864761  0.16964217  0.72872097     0.01400
C385        C  0.81346845  0.13261467  0.71793045     0.04300
C386        C  0.83782902  0.11438395  0.74105654    -0.11800
C387        C  0.85012186  0.13384770  0.77371092     0.23600
C388        C  0.84110224  0.17277693  0.78129171    -0.12400
C389        C  0.81702708  0.19119887  0.75809634     0.05000
C390        C  0.87319335  0.11368372  0.79974279     0.27400
C391        C  0.85630375  0.09781134  0.83032096    -0.13100
C392        C  0.87776613  0.07906797  0.85545456     0.05500
C393        C  0.91606364  0.07400924  0.84898020    -0.09000
C394        C  0.93269368  0.08852922  0.81742862     0.06300
C395        C  0.91163716  0.11011682  0.79400123    -0.13400
Br396      Br  0.86309224  0.20097565  0.82321505    -0.05500
Br397      Br  0.80786438  0.10935902  0.66890160     0.00200
Br398      Br  0.85382554  0.05823798  0.89752942     0.00600
Br399      Br  0.93539872  0.13591377  0.75472799    -0.03800
Br400      Br  0.81581988  0.24684993  0.76412490     0.00700
Br401      Br  0.85554602  0.06287532  0.72768661    -0.03100
Br402      Br  0.80345435  0.10139333  0.83735045    -0.04000
Br403      Br  0.98390253  0.07837709  0.80563084     0.00000
C404        C  0.55528718  0.39180514  0.81239192     0.01400
C405        C  0.54696867  0.36717680  0.78113003     0.04300
C406        C  0.57214901  0.33867228  0.76830852    -0.11800
C407        C  0.60665932  0.33618514  0.78534260     0.23600
C408        C  0.61467926  0.36008846  0.81708450    -0.12400
C409        C  0.58851602  0.38706951  0.83121213     0.05000
C410        C  0.63545803  0.31079413  0.76781297     0.27400
C411        C  0.64354505  0.27532829  0.78200866    -0.13100
C412        C  0.66986639  0.25058576  0.76425669     0.05500
C413        C  0.68798048  0.26094922  0.73124755    -0.09000
C414        C  0.67839645  0.29651740  0.71669939     0.06300
C415        C  0.65330279  0.32165328  0.73564953    -0.13400
Br416      Br  0.66236836  0.35756415  0.83972637    -0.05500
Br417      Br  0.50315010  0.37495289  0.75319846     0.00200
Br418      Br  0.67628790  0.20044828  0.78354857     0.00600
Br419      Br  0.64293185  0.37167787  0.71764023    -0.03800
Br420      Br  0.59804262  0.41768667  0.87630417     0.00700
Br421      Br  0.56039988  0.30445583  0.72591250    -0.03100
Br422      Br  0.61714413  0.26028863  0.82530716    -0.04000
Br423      Br  0.69754561  0.31257150  0.67063877     0.00000
C424        C  0.79569337  0.86250762  0.16802214     0.01400
C425        C  0.81217829  0.84083951  0.13757178     0.04300
C426        C  0.82672354  0.85938731  0.10770169    -0.11800
C427        C  0.83169195  0.89953068  0.11038015     0.23600
C428        C  0.82196978  0.92098450  0.14321895    -0.12400
C429        C  0.80489630  0.90250550  0.17252625     0.05000
C430        C  0.85426300  0.91684191  0.08148807     0.27400
C431        C  0.89252092  0.91051540  0.08077841    -0.13100
C432        C  0.91397123  0.91978660  0.05022112     0.05500
C433        C  0.89805826  0.93947899  0.02151041    -0.09000
C434        C  0.85907389  0.94437303  0.02182984     0.06300
C435        C  0.83745829  0.93339118  0.05190886    -0.13400
Br436      Br  0.83377185  0.97541709  0.14821618    -0.05500
Br437      Br  0.82156157  0.78625440  0.13833531     0.00200
Br438      Br  0.96387377  0.90143397  0.04796681     0.00600
Br439      Br  0.78473622  0.94110738  0.05307658    -0.03800
Br440      Br  0.80614334  0.92963733  0.22050521     0.00700
Br441      Br  0.84117212  0.82941828  0.06307896    -0.03100
Br442      Br  0.91544836  0.88848502  0.12219463    -0.04000
Br443      Br  0.83410454  0.96256606  0.97980530     0.00000
C444        C  0.68526270  0.77186333  0.16596379     0.01400
C445        C  0.69425734  0.74682913  0.13453825     0.04300
C446        C  0.66863679  0.71907314  0.12065580    -0.11800
C447        C  0.63449159  0.71493368  0.13851697     0.23600
C448        C  0.62412857  0.74102801  0.16785255    -0.12400
C449        C  0.64884533  0.77016732  0.18074276     0.05000
C450        C  0.61155386  0.68035526  0.12931399     0.27400
C451        C  0.58701122  0.67928394  0.09969474    -0.13100
C452        C  0.56634525  0.64559030  0.09069738     0.05500
C453        C  0.56834203  0.61386207  0.11293027    -0.09000
C454        C  0.59340024  0.61501187  0.14236039     0.06300
C455        C  0.61553049  0.64785633  0.14990594    -0.13400
Br456      Br  0.57639777  0.73532646  0.19136915    -0.05500
Br457      Br  0.74216357  0.74616225  0.11133669     0.00200
Br458      Br  0.53784632  0.64201157  0.04620999     0.00600
Br459      Br  0.65153760  0.64851121  0.18857620    -0.03800
Br460      Br  0.63068914  0.80845865  0.21692029     0.00700
Br461      Br  0.68095083  0.68439414  0.07844386    -0.03100
Br462      Br  0.58192622  0.72400421  0.07158559    -0.04000
Br463      Br  0.59664348  0.57258650  0.17371358     0.00000
C464        C  0.68976111  0.85872119  0.26668955     0.01400
C465        C  0.66834268  0.89113380  0.25835876     0.04300
C466        C  0.64107549  0.90598458  0.28335180    -0.11800
C467        C  0.63175138  0.88625162  0.31470285     0.23600
C468        C  0.65171220  0.85330483  0.32248003    -0.12400
C469        C  0.68151704  0.84061342  0.29968935     0.05000
C470        C  0.60045494  0.89906218  0.33936123     0.27400
C471        C  0.60708979  0.91567550  0.37511629    -0.13100
C472        C  0.57751093  0.92068522  0.40061299     0.05500
C473        C  0.54165076  0.90763304  0.39055773    -0.09000
C474        C  0.53471261  0.90374527  0.35246746     0.06300
C475        C  0.56369330  0.89452935  0.32762711    -0.13400
Br476      Br  0.63722188  0.82472909  0.36425064    -0.05500
Br477      Br  0.67140524  0.91246057  0.21070823     0.00200
Br478      Br  0.58514157  0.95184266  0.44564006     0.00600
Br479      Br  0.55208632  0.87447110  0.27847399    -0.03800
Br480      Br  0.71063936  0.79900647  0.31578386     0.00700
Br481      Br  0.61627936  0.95350667  0.27460779    -0.03100
Br482      Br  0.65658306  0.93086879  0.38901145    -0.04000
Br483      Br  0.49172833  0.92745420  0.33336419     0.00000
C484        C  0.78202742  0.68152287  0.66827262     0.01400
C485        C  0.80443550  0.69852726  0.64134146     0.04300
C486        C  0.81931351  0.67561026  0.61109220    -0.11800
C487        C  0.81594900  0.63489144  0.60939233     0.23600
C488        C  0.79684463  0.61773380  0.63831910    -0.12400
C489        C  0.77873832  0.64084497  0.66655660     0.05000
C490        C  0.82878720  0.61051581  0.57564280     0.27400
C491        C  0.80251961  0.59259001  0.55183481    -0.13100
C492        C  0.81378203  0.56871669  0.52069171     0.05500
C493        C  0.85222388  0.56426757  0.51081695    -0.09000
C494        C  0.87725117  0.58893505  0.53101652     0.06300
C495        C  0.86647573  0.60773358  0.56523407    -0.13400
Br496      Br  0.79490312  0.56216804  0.63881523    -0.05500
Br497      Br  0.81207244  0.75386646  0.64329012     0.00200
Br498      Br  0.77448583  0.54564561  0.49051253     0.00600
Br499      Br  0.90384669  0.63056160  0.59723880    -0.03800
Br500      Br  0.74977709  0.61630275  0.70312939     0.00700
Br501      Br  0.84102636  0.70063127  0.57014240    -0.03100
Br502      Br  0.75047828  0.60242077  0.56110595    -0.04000
Br503      Br  0.91833462  0.61196928  0.50647760     0.00000
C504        C  0.76617212  0.25873279  0.63100937     0.01400
C505        C  0.75915085  0.25182699  0.59314909     0.04300
C506        C  0.76785220  0.28016826  0.56853207    -0.11800
C507        C  0.78193167  0.31622593  0.58191393     0.23600
C508        C  0.78879922  0.32341648  0.61964360    -0.12400
C509        C  0.78210278  0.29439580  0.64394172     0.05000
C510        C  0.79078345  0.34650484  0.55647908     0.27400
C511        C  0.82786213  0.35299071  0.54634789    -0.13100
C512        C  0.83716483  0.38487697  0.52639377     0.05500
C513        C  0.80928680  0.40903744  0.51470709    -0.09000
C514        C  0.77208021  0.40148876  0.52313998     0.06300
C515        C  0.76278160  0.37066071  0.54472153    -0.13400
Br516      Br  0.80652214  0.37368788  0.63804987    -0.05500
Br517      Br  0.73860052  0.20341347  0.57448669     0.00200
Br518      Br  0.88821037  0.39664884  0.51629629     0.00600
Br519      Br  0.71207266  0.36210403  0.55908464    -0.03800
Br520      Br  0.79244333  0.30533856  0.69530945     0.00700
Br521      Br  0.76130171  0.26960254  0.51634000    -0.03100
Br522      Br  0.86584224  0.31831247  0.56020867    -0.04000
Br523      Br  0.73443622  0.43385502  0.50517474     0.00000
C524        C  0.77444429  0.75890810  0.25604498     0.01400
C525        C  0.79475565  0.77021533  0.28795179     0.04300
C526        C  0.80436525  0.74256895  0.31254257    -0.11800
C527        C  0.79588930  0.70332402  0.30414265     0.23600
C528        C  0.77790437  0.69174154  0.27116282    -0.12400
C529        C  0.76641256  0.71953419  0.24764155     0.05000
C530        C  0.80496855  0.67395976  0.33007368     0.27400
C531        C  0.84153024  0.66076194  0.33241462    -0.13100
C532        C  0.84926217  0.63059624  0.35480741     0.05500
C533        C  0.82036738  0.61260345  0.37351112    -0.09000
C534        C  0.78411779  0.62616311  0.37182672     0.06300
C535        C  0.77642801  0.65735296  0.35068562    -0.13400
Br536      Br  0.76927562  0.63750329  0.25818910    -0.05500
Br537      Br  0.80765333  0.82381412  0.29944205     0.00200
Br538      Br  0.89938235  0.61420907  0.36077028     0.00600
Br539      Br  0.72683801  0.67714192  0.34964281    -0.03800
Br540      Br  0.74090852  0.70301909  0.20335607     0.00700
Br541      Br  0.82781816  0.75852077  0.35842378    -0.03100
Br542      Br  0.88077431  0.68319017  0.30431191    -0.04000
Br543      Br  0.74532357  0.60101837  0.39804782     0.00000
C544        C  0.15727562  0.23036548  0.78937109     0.01400
C545        C  0.14363850  0.24112896  0.82540635     0.04300
C546        C  0.12095261  0.21560368  0.84391411    -0.11800
C547        C  0.10752465  0.18190718  0.82509594     0.23600
C548        C  0.11393379  0.17548433  0.78716575    -0.12400
C549        C  0.13810568  0.19996999  0.76895251     0.05000
C550        C  0.08836822  0.15218613  0.84542472     0.27400
C551        C  0.10849394  0.12019410  0.85545302    -0.13100
C552        C  0.09086906  0.09139824  0.87455081     0.05500
C553        C  0.05284282  0.09423547  0.88327798    -0.09000
C554        C  0.03357040  0.12788804  0.87579994     0.06300
C555        C  0.05090021  0.15614295  0.85558927    -0.13400
Br556      Br  0.08961413  0.13245543  0.76067124    -0.05500
Br557      Br  0.14959113  0.29271634  0.84790253     0.00200
Br558      Br  0.12008993  0.05010259  0.89120960     0.00600
Br559      Br  0.02329521  0.19977359  0.84103245    -0.03800
Br560      Br  0.13991007  0.19328039  0.71585423     0.00700
Br561      Br  0.10899139  0.22618859  0.89543920    -0.03100
Br562      Br  0.16042376  0.11597349  0.84281425    -0.04000
Br563      Br  0.98457694  0.13697542  0.89512608     0.00000
C564        C  0.27198959  0.31596830  0.80569240     0.01400
C565        C  0.26149320  0.35257365  0.82158544     0.04300
C566        C  0.28865897  0.37910009  0.83481364    -0.11800
C567        C  0.32598704  0.36781762  0.83545702     0.23600
C568        C  0.33541604  0.32927007  0.82488567    -0.12400
C569        C  0.30864763  0.30373118  0.80928802     0.05000
C570        C  0.35580233  0.39749215  0.84003407     0.27400
C571        C  0.37536175  0.40787730  0.80857329    -0.13100
C572        C  0.40467579  0.43459914  0.81184023     0.05500
C573        C  0.41378371  0.45314272  0.84688204    -0.09000
C574        C  0.38895285  0.44791485  0.87658036     0.06300
C575        C  0.36286861  0.41745405  0.87421196    -0.13400
Br576      Br  0.38594847  0.31272420  0.82860652    -0.05500
Br577      Br  0.21030551  0.36776105  0.82287125     0.00200
Br578      Br  0.42933705  0.44732492  0.76652107     0.00600
Br579      Br  0.33641894  0.40375094  0.91778168    -0.03800
Br580      Br  0.32257706  0.25229731  0.79257277     0.00700
Br581      Br  0.27520539  0.43209155  0.84759170    -0.03100
Br582      Br  0.36100339  0.38606594  0.76039350    -0.04000
Br583      Br  0.38009348  0.48900473  0.91384235     0.00000
C584        C  0.79291993  0.22509738  0.13212540     0.01400
C585        C  0.83037176  0.23400882  0.12406367     0.04300
C586        C  0.85498761  0.20462871  0.11166584    -0.11800
C587        C  0.84154672  0.16795072  0.09913196     0.23600
C588        C  0.80310432  0.16109199  0.09989252    -0.12400
C589        C  0.77884042  0.18935188  0.11625703     0.05000
C590        C  0.86715348  0.14008074  0.07867938     0.27400
C591        C  0.87959856  0.14814948  0.04333026    -0.13100
C592        C  0.90635357  0.12476186  0.02461833     0.05500
C593        C  0.91846514  0.08987715  0.03922494    -0.09000
C594        C  0.90611391  0.08222056  0.07532219     0.06300
C595        C  0.88088805  0.10743955  0.09485876    -0.13400
Br596      Br  0.78376187  0.11341485  0.07711345    -0.05500
Br597      Br  0.84550967  0.28645635  0.11645707     0.00200
Br598      Br  0.92749450  0.14424760  0.98034010     0.00600
Br599      Br  0.86469882  0.09746365  0.14399384    -0.03800
Br600      Br  0.72626728  0.18033148  0.11206924     0.00700
Br601      Br  0.90735310  0.21551594  0.10997529    -0.03100
Br602      Br  0.85920462  0.19171982  0.02013474    -0.04000
Br603      Br  0.92398084  0.03840323  0.09959855     0.00000
C604        C  0.55309371  0.45537523  0.08406083     0.01400
C605        C  0.58457723  0.44883431  0.06071121     0.04300
C606        C  0.61153313  0.42145970  0.06896436    -0.11800
C607        C  0.61063808  0.40433745  0.10292556     0.23600
C608        C  0.58300085  0.41541111  0.12883023    -0.12400
C609        C  0.55546827  0.44178427  0.12029049     0.05000
C610        C  0.64031170  0.37724298  0.11309321     0.27400
C611        C  0.63345752  0.33711086  0.11172176    -0.13100
C612        C  0.65996870  0.31188449  0.12477395     0.05500
C613        C  0.69319190  0.32675989  0.14032128    -0.09000
C614        C  0.70204850  0.36592228  0.13669061     0.06300
C615        C  0.67507785  0.39147528  0.12516747    -0.13400
Br616      Br  0.58369601  0.39487963  0.17686728    -0.05500
Br617      Br  0.59908428  0.48539176  0.02567667     0.00200
Br618      Br  0.65150511  0.25683971  0.11921588     0.00600
Br619      Br  0.68550551  0.44610606  0.12708676    -0.03800
Br620      Br  0.52550976  0.46314218  0.16132353     0.00700
Br621      Br  0.65071099  0.40816792  0.03405729    -0.03100
Br622      Br  0.58734511  0.31696586  0.09234340    -0.04000
Br623      Br  0.75272961  0.38295534  0.14132308     0.00000
C624        C  0.86930549  0.45624158  0.37965728     0.01400
C625        C  0.86405911  0.41632188  0.38263402     0.04300
C626        C  0.84639505  0.39372807  0.35452024    -0.11800
C627        C  0.84240690  0.40814547  0.31951046     0.23600
C628        C  0.85905657  0.44421935  0.31331698    -0.12400
C629        C  0.87303769  0.46801415  0.34333729     0.05000
C630        C  0.82382401  0.38389472  0.28916941     0.27400
C631        C  0.83949908  0.34876774  0.27564479    -0.13100
C632        C  0.81894194  0.32210012  0.25311367     0.05500
C633        C  0.78535429  0.33308690  0.23662483    -0.09000
C634        C  0.77044289  0.36982032  0.24913489     0.06300
C635        C  0.78887843  0.39391321  0.27632347    -0.13400
Br636      Br  0.86369770  0.46024438  0.26389597    -0.05500
Br637      Br  0.89250345  0.39052454  0.41773620     0.00200
Br638      Br  0.83474708  0.26889147  0.25205589     0.00600
Br639      Br  0.76600790  0.44086371  0.29690034    -0.03800
Br640      Br  0.90459411  0.51122372  0.33390123     0.00700
Br641      Br  0.82702883  0.34374896  0.36525137    -0.03100
Br642      Br  0.88978585  0.33709077  0.28794847    -0.04000
Br643      Br  0.72498707  0.38928969  0.23096228     0.00000
C644        C  0.53827513  0.12850098  0.51505846     0.01400
C645        C  0.56612314  0.15769277  0.51637883     0.04300
C646        C  0.59680885  0.15550079  0.53927441    -0.11800
C647        C  0.59731172  0.12850624  0.56618310     0.23600
C648        C  0.56723825  0.10295187  0.56927425    -0.12400
C649        C  0.53719990  0.10373534  0.54488560     0.05000
C650        C  0.62501864  0.13376797  0.59602145     0.27400
C651        C  0.66077866  0.11849418  0.59153192    -0.13100
C652        C  0.68883495  0.13020703  0.61663503     0.05500
C653        C  0.68110012  0.15699790  0.64692617    -0.09000
C654        C  0.64394992  0.16849468  0.65317732     0.06300
C655        C  0.61647510  0.15801379  0.62740943    -0.13400
Br656      Br  0.56618383  0.06911176  0.60923791    -0.05500
Br657      Br  0.55807641  0.20678324  0.49615779     0.00200
Br658      Br  0.73788829  0.11098510  0.60718268     0.00600
Br659      Br  0.56727039  0.17909661  0.63380464    -0.03800
Br660      Br  0.49195466  0.07900718  0.56026514     0.00700
Br661      Br  0.63711658  0.19206147  0.53597236    -0.03100
Br662      Br  0.67141006  0.08323227  0.54955094    -0.04000
Br663      Br  0.62898160  0.19688456  0.69772063     0.00000
C664        C  0.40598372  0.18570131  0.56412789     0.01400
C665        C  0.40765525  0.21945057  0.58764014     0.04300
C666        C  0.38203955  0.22503123  0.61682038    -0.11800
C667        C  0.35365541  0.19755571  0.62140128     0.23600
C668        C  0.35329268  0.16279836  0.59896450    -0.12400
C669        C  0.38057724  0.15626532  0.57153154     0.05000
C670        C  0.32254985  0.20730412  0.64721157     0.27400
C671        C  0.31872731  0.18985787  0.68081607    -0.13100
C672        C  0.28988401  0.20108097  0.70565739     0.05500
C673        C  0.26664844  0.23236205  0.69834384    -0.09000
C674        C  0.26977495  0.24815696  0.66360936     0.06300
C675        C  0.29708037  0.23525605  0.63807048    -0.13400
Br676      Br  0.31444299  0.12511193  0.60412406    -0.05500
Br677      Br  0.44450928  0.25819123  0.57898954     0.00200
Br678      Br  0.28276221  0.17245178  0.74883466     0.00600
Br679      Br  0.30009414  0.25633521  0.59020889    -0.03800
Br680      Br  0.38503061  0.10626680  0.54571918     0.00700
Br681      Br  0.38470784  0.27103770  0.64963574    -0.03100
Br682      Br  0.35422439  0.15187567  0.69342143    -0.04000
Br683      Br  0.23557866  0.28555069  0.64852361     0.00000
C684        C  0.69560979  0.23981004  0.23571456     0.01400
C685        C  0.65786223  0.25078169  0.23877036     0.04300
C686        C  0.63371146  0.23352969  0.26366895    -0.11800
C687        C  0.64685841  0.20655557  0.28732551     0.23600
C688        C  0.68449235  0.19676206  0.28597563    -0.12400
C689        C  0.70872805  0.21298363  0.26032796     0.05000
C690        C  0.62125950  0.19097008  0.31533993     0.27400
C691        C  0.61083840  0.21479294  0.34657791    -0.13100
C692        C  0.58306994  0.20262129  0.37064336     0.05500
C693        C  0.56773824  0.16522129  0.36578427    -0.09000
C694        C  0.57899243  0.14076428  0.33530175     0.06300
C695        C  0.60507837  0.15388805  0.30963990    -0.13400
Br696      Br  0.70281704  0.16179832  0.32038383    -0.05500
Br697      Br  0.63738785  0.28957133  0.21000131     0.00200
Br698      Br  0.56365691  0.23848632  0.40837264     0.00600
Br699      Br  0.61822621  0.12153176  0.26641268    -0.03800
Br700      Br  0.76041159  0.20004452  0.26185587     0.00700
Br701      Br  0.58185523  0.24680411  0.26565108    -0.03100
Br702      Br  0.63470132  0.26431508  0.35633272    -0.04000
Br703      Br  0.55842489  0.08948812  0.32906683     0.00000
C704        C  0.18672887  0.83526584  0.72557337     0.01400
C705        C  0.14771467  0.83978333  0.72561059     0.04300
C706        C  0.12902362  0.85632012  0.75703895    -0.11800
C707        C  0.14875407  0.87593086  0.78578437     0.23600
C708        C  0.18746396  0.87804263  0.78289951    -0.12400
C709        C  0.20643584  0.85732365  0.75372841     0.05000
C710        C  0.12849836  0.89932546  0.81571147     0.27400
C711        C  0.11038798  0.93320514  0.80719798    -0.13100
C712        C  0.08764315  0.95323560  0.83363356     0.05500
C713        C  0.08578099  0.94226832  0.87045162    -0.09000
C714        C  0.10747883  0.91087728  0.87985355     0.06300
C715        C  0.12719809  0.88833962  0.85232840    -0.13400
Br716      Br  0.21432837  0.91084085  0.81849860    -0.05500
Br717      Br  0.12030806  0.83720048  0.68057683     0.00200
Br718      Br  0.05845708  0.99442012  0.81725219     0.00600
Br719      Br  0.15143443  0.84174563  0.86446260    -0.03800
Br720      Br  0.25963643  0.86204243  0.75241102     0.00700
Br721      Br  0.07574790  0.85345617  0.75993380    -0.03100
Br722      Br  0.11700302  0.95228992  0.75881500    -0.04000
Br723      Br  0.11141871  0.89965776  0.93056328     0.00000
C724        C  0.27876679  0.72888333  0.71462832     0.01400
C725        C  0.31434127  0.74079263  0.72644295     0.04300
C726        C  0.33788674  0.71434407  0.74173257    -0.11800
C727        C  0.32556780  0.67639521  0.74618982     0.23600
C728        C  0.28866017  0.66600129  0.73858040    -0.12400
C729        C  0.26479668  0.69296863  0.72456584     0.05000
C730        C  0.35110090  0.64799080  0.76024909     0.27400
C731        C  0.37334055  0.62514362  0.73541700    -0.13100
C732        C  0.39794612  0.59848162  0.74877934     0.05500
C733        C  0.40024477  0.59470102  0.78679549    -0.09000
C734        C  0.37862992  0.61796645  0.81162659     0.06300
C735        C  0.35392372  0.64455223  0.79841523    -0.13400
Br736      Br  0.27079580  0.61506426  0.74786038    -0.05500
Br737      Br  0.32964663  0.79409947  0.72561653     0.00200
Br738      Br  0.42844346  0.56666678  0.71550593     0.00600
Br739      Br  0.32422103  0.67647468  0.83245780    -0.03800
Br740      Br  0.21223385  0.68287774  0.72396146     0.00700
Br741      Br  0.38668803  0.73010723  0.75768804    -0.03100
Br742      Br  0.37000495  0.63056335  0.68325637    -0.04000
Br743      Br  0.38406336  0.61374514  0.86372516     0.00000
C744        C  0.28484409  0.81799981  0.62273241     0.01400
C745        C  0.32159137  0.80336828  0.61958794     0.04300
C746        C  0.34885148  0.82232741  0.59928761    -0.11800
C747        C  0.33941246  0.85274626  0.57770695     0.23600
C748        C  0.30276916  0.86582777  0.57834077    -0.12400
C749        C  0.27574197  0.84902810  0.60086485     0.05000
C750        C  0.36695390  0.86581716  0.55007826     0.27400
C751        C  0.38871122  0.89939245  0.55695421    -0.13100
C752        C  0.41806781  0.90815430  0.53252671     0.05500
C753        C  0.42530004  0.88362989  0.50031145    -0.09000
C754        C  0.40768193  0.84667032  0.49858641     0.06300
C755        C  0.37603516  0.84018728  0.51990584    -0.13400
Br756      Br  0.28963109  0.90609621  0.54706145    -0.05500
Br757      Br  0.33638424  0.75542306  0.63852207     0.00200
Br758      Br  0.45270983  0.94815550  0.54861007     0.00600
Br759      Br  0.34633300  0.79434613  0.50906669    -0.03800
Br760      Br  0.22532600  0.86605066  0.59734919     0.00700
Br761      Br  0.39990848  0.80593830  0.59993221    -0.03100
Br762      Br  0.37918183  0.93217120  0.60090157    -0.04000
Br763      Br  0.43184916  0.80083453  0.47672233     0.00000
C764        C  0.15034832  0.46106352  0.56835010     0.01400
C765        C  0.12831318  0.46365211  0.60066212     0.04300
C766        C  0.13857074  0.44407406  0.63131952    -0.11800
C767        C  0.16941127  0.41967728  0.62886758     0.23600
C768        C  0.19228867  0.41812443  0.59719620    -0.12400
C769        C  0.18343143  0.44000169  0.56758760     0.05000
C770        C  0.17593745  0.39319636  0.65813408     0.27400
C771        C  0.20469118  0.40050605  0.68304217    -0.13100
C772        C  0.21315414  0.37337403  0.70860642     0.05500
C773        C  0.19222682  0.33855258  0.70987765    -0.09000
C774        C  0.16282513  0.33194533  0.68442609     0.06300
C775        C  0.15438349  0.35955682  0.65947990    -0.13400
Br776      Br  0.23446977  0.38434446  0.59345239    -0.05500
Br777      Br  0.08219697  0.49046905  0.60224156     0.00200
Br778      Br  0.25425036  0.38555711  0.74020198     0.00600
Br779      Br  0.11378828  0.35072385  0.62572875    -0.03800
Br780      Br  0.21676653  0.44173968  0.52616874     0.00700
Br781      Br  0.10932951  0.44873205  0.67613666    -0.03100
Br782      Br  0.23242557  0.44828801  0.68163553    -0.04000
Br783      Br  0.13741126  0.28282374  0.67764694     0.00000
C784        C  0.13819878  0.55942887  0.34181462     0.01400
C785        C  0.16826312  0.54888083  0.31842804     0.04300
C786        C  0.17428978  0.56805252  0.28606455    -0.11800
C787        C  0.15156792  0.59926070  0.27841320     0.23600
C788        C  0.11970804  0.60736978  0.30008015    -0.12400
C789        C  0.11224823  0.58619532  0.33079237     0.05000
C790        C  0.16483430  0.62754077  0.25246358     0.27400
C791        C  0.19294656  0.65352072  0.26386161    -0.13100
C792        C  0.20659375  0.68055614  0.24003856     0.05500
C793        C  0.19092452  0.68347304  0.20479084    -0.09000
C794        C  0.16157863  0.65758372  0.19397938     0.06300
C795        C  0.14932092  0.62933606  0.21753133    -0.13400
Br796      Br  0.08794193  0.64947613  0.28962913    -0.05500
Br797      Br  0.20253247  0.51040534  0.33211751     0.00200
Br798      Br  0.24613674  0.71324438  0.25819642     0.00600
Br799      Br  0.11160383  0.59230848  0.20202086    -0.03800
Br800      Br  0.06589640  0.59258715  0.35701978     0.00700
Br801      Br  0.21513644  0.55381503  0.25350535    -0.03100
Br802      Br  0.21215321  0.65248297  0.31326036    -0.04000
Br803      Br  0.13932097  0.65747131  0.14593609     0.00000
C804        C  0.19021280  0.72537410  0.61928552     0.01400
C805        C  0.16087321  0.73801434  0.59759250     0.04300
C806        C  0.14064261  0.71170953  0.57417888    -0.11800
C807        C  0.15140993  0.67287674  0.56886486     0.23600
C808        C  0.18272594  0.66062646  0.58723663    -0.12400
C809        C  0.20196081  0.68632808  0.61238825     0.05000
C810        C  0.13028964  0.64506900  0.54345762     0.27400
C811        C  0.10367303  0.61971756  0.55742124    -0.13100
C812        C  0.08621453  0.59151555  0.53346348     0.05500
C813        C  0.09664233  0.58751657  0.49577318    -0.09000
C814        C  0.11344280  0.62015634  0.48163345     0.06300
C815        C  0.13413822  0.64586193  0.50493736    -0.13400
Br816      Br  0.19912639  0.60798948  0.57742088    -0.05500
Br817      Br  0.15104526  0.79223511  0.59522882     0.00200
Br818      Br  0.04695141  0.56032745  0.55185608     0.00600
Br819      Br  0.16580443  0.68319039  0.48335211    -0.03800
Br820      Br  0.24444145  0.66617517  0.63559482     0.00700
Br821      Br  0.09741655  0.72875747  0.54956054    -0.03100
Br822      Br  0.09175866  0.62326833  0.60921665    -0.04000
Br823      Br  0.08715131  0.64367184  0.44363863     0.00000
C824        C  0.17550279  0.17915566  0.18689713     0.01400
C825        C  0.16035731  0.19538994  0.15566665     0.04300
C826        C  0.14675401  0.17184899  0.12583035    -0.11800
C827        C  0.14141757  0.13210061  0.12893953     0.23600
C828        C  0.15052892  0.11623642  0.16222942    -0.12400
C829        C  0.16629174  0.13970120  0.19152091     0.05000
C830        C  0.12090892  0.10891005  0.09937031     0.27400
C831        C  0.08272790  0.11458091  0.09528303    -0.13100
C832        C  0.06360666  0.09628612  0.06529443     0.05500
C833        C  0.08186257  0.06954646  0.03996509    -0.09000
C834        C  0.12026200  0.06279971  0.04531533     0.06300
C835        C  0.13957202  0.08314754  0.07419098    -0.13400
Br836      Br  0.13966632  0.06244247  0.16811394    -0.05500
Br837      Br  0.14845759  0.24925141  0.15676312     0.00200
Br838      Br  0.01282882  0.11072841  0.05907812     0.00600
Br839      Br  0.19206110  0.07604804  0.07946744    -0.03800
Br840      Br  0.16362105  0.12003185  0.23980325     0.00700
Br841      Br  0.13426965  0.19450848  0.08061838    -0.03100
Br842      Br  0.05646874  0.14789600  0.13136893    -0.04000
Br843      Br  0.14751913  0.02443079  0.01511109     0.00000
C844        C  0.27579545  0.28388372  0.20369301     0.01400
C845        C  0.31202565  0.28700561  0.21843034     0.04300
C846        C  0.33897187  0.31080690  0.20289935    -0.11800
C847        C  0.33024525  0.33233388  0.17305836     0.23600
C848        C  0.29447534  0.33059939  0.15884938    -0.12400
C849        C  0.26737020  0.30698226  0.17413890     0.05000
C850        C  0.35829496  0.35817869  0.15743003     0.27400
C851        C  0.36476037  0.39511288  0.17467042    -0.13100
C852        C  0.39082106  0.41994774  0.15959227     0.05500
C853        C  0.40889891  0.40894049  0.12598302    -0.09000
C854        C  0.40274731  0.37174729  0.10898417     0.06300
C855        C  0.37792675  0.34617784  0.12503930    -0.13400
Br856      Br  0.28270715  0.36156374  0.11844864    -0.05500
Br857      Br  0.32697194  0.25938128  0.25944692     0.00200
Br858      Br  0.40333387  0.46814934  0.18614044     0.00600
Br859      Br  0.37020627  0.29486143  0.10252732    -0.03800
Br860      Br  0.21818730  0.31061733  0.15587698     0.00700
Br861      Br  0.38857663  0.31404808  0.22204793    -0.03100
Br862      Br  0.33716679  0.41193553  0.21851037    -0.04000
Br863      Br  0.42690417  0.35643721  0.06288113     0.00000
C864        C  0.27210022  0.19552314  0.29132015     0.01400
C865        C  0.27196741  0.20873952  0.32904077     0.04300
C866        C  0.29987288  0.19744909  0.35266434    -0.11800
C867        C  0.32840261  0.17283565  0.33918390     0.23600
C868        C  0.32864839  0.15908555  0.30196800    -0.12400
C869        C  0.30104598  0.17058984  0.27799985     0.05000
C870        C  0.35909542  0.16318587  0.36396891     0.27400
C871        C  0.38912546  0.18875820  0.36935520    -0.13100
C872        C  0.41659071  0.18182657  0.39517411     0.05500
C873        C  0.41620932  0.14717443  0.41410750    -0.09000
C874        C  0.38296709  0.12460310  0.41198255     0.06300
C875        C  0.35598679  0.13127663  0.38551812    -0.13400
Br876      Br  0.36801320  0.12550788  0.28379921    -0.05500
Br877      Br  0.23413571  0.24256851  0.34950099     0.00200
Br878      Br  0.45061255  0.22371806  0.40822240     0.00600
Br879      Br  0.31324942  0.09774783  0.37977597    -0.03800
Br880      Br  0.30667361  0.15624688  0.22604331     0.00700
Br881      Br  0.29976066  0.21637855  0.40383007    -0.03100
Br882      Br  0.39187769  0.23418630  0.34163974    -0.04000
Br883      Br  0.36718656  0.09274001  0.45072399     0.00000
C884        C  0.17598794  0.28649229  0.28903029     0.01400
C885        C  0.18072054  0.32660987  0.28616997     0.04300
C886        C  0.16278502  0.35323983  0.31117152    -0.11800
C887        C  0.14331113  0.34041354  0.34188230     0.23600
C888        C  0.13874525  0.30034769  0.34514082    -0.12400
C889        C  0.15317249  0.27360858  0.31770957     0.05000
C890        C  0.13124150  0.36939293  0.37193400     0.27400
C891        C  0.15814596  0.39056518  0.39235996    -0.13100
C892        C  0.14799740  0.42365095  0.41465509     0.05500
C893        C  0.10977168  0.43280009  0.42137023    -0.09000
C894        C  0.08359262  0.40496654  0.40807673     0.06300
C895        C  0.09366861  0.37701458  0.37981826    -0.13400
Br896      Br  0.11496857  0.28187670  0.38834223    -0.05500
Br897      Br  0.21165850  0.34605861  0.24831745     0.00200
Br898      Br  0.18809263  0.45630053  0.43363536     0.00600
Br899      Br  0.05557899  0.35066597  0.35133159    -0.03800
Br900      Br  0.14304425  0.21916075  0.32088022     0.00700
Br901      Br  0.16488091  0.40777362  0.30345224    -0.03100
Br902      Br  0.20930823  0.37467759  0.38865460    -0.04000
Br903      Br  0.04147662  0.39269948  0.43778721     0.00000
loop_ 
_geom_bond_atom_site_label_1 
_geom_bond_atom_site_label_2 
_geom_bond_distance 
_geom_bond_site_symmetry_2 
_ccdc_geom_bond_type 
C1            C2   1.550       .  S
C1            C7   1.535       .  S
C1            C5   1.550       .  S
C1          C824   1.565       .  S
C2            H9   1.086       .  S
C2            C3   1.373       .  D
C3            C4   1.550       .  S
C3          C844   1.516       .  S
C4            C8   1.548       .  S
C4            C6   1.551       .  S
C4           H10   1.109       .  S
C5           H11   1.080       .  S
C5            C6   1.372       .  D
C6          C864   1.512       .  S
C7           H12   1.086       .  S
C7            C8   1.364       .  D
C8          C884   1.500       .  S
C13          C15   1.525       .  S
C13          C17   1.533       .  S
C13          C16   1.561       .  S
C13         C893   1.558       .  S
C14          C18   1.560       .  S
C14          C20   1.539       .  S
C14          C19   1.554       .  S
C14         C813   1.560       .  S
C15          C23   1.375       .  A
C15          C18   1.399       .  A
C16          C27   1.389       .  A
C16          C19   1.415       .  A
C17          C31   1.376       .  A
C17          C20   1.389       .  A
C18          C21   1.386       .  A
C19          C25   1.381       .  A
C20          C28   1.383       .  A
C21          N22   1.357       .  A
C21          H34   1.073       .  S
N22          C23   1.346       .  A
N22         C784   1.436       .  S
C23          H24   1.083       .  S
C25          N26   1.356       .  A
C25          H35   1.085       .  S
N26          C27   1.360       .  A
N26         N108   1.416   1_455  S
C27          H33   1.070       .  S
C28          N29   1.356       .  A
C28          H30   1.081       .  S
N29          C31   1.356       .  A
N29         C764   1.437       .  S
C31          H32   1.083       .  S
C36          C37   1.526       .  S
C36          C42   1.559       .  S
C36          C40   1.545       .  S
C36         C704   1.563       .  S
C37          H44   1.087       .  S
C37          C38   1.354       .  D
C38          C39   1.559       .  S
C38         C724   1.483       .  S
C39          C43   1.546       .  S
C39          C41   1.547       .  S
C39          H45   1.097       .  S
C40          H46   1.085       .  S
C40          C41   1.375       .  D
C41         C744   1.522       .  S
C42          H47   1.078       .  S
C42          C43   1.377       .  D
C43         C804   1.529       .  S
C48          C50   1.539       .  S
C48          C52   1.552       .  S
C48          C51   1.548       .  S
C48         C873   1.559       .  S
C49          C53   1.527       .  S
C49          C55   1.546       .  S
C49          C54   1.543       .  S
C49         C644   1.554       .  S
C50          C58   1.383       .  A
C50          C53   1.400       .  A
C51          C62   1.387       .  A
C51          C54   1.416       .  A
C52          C66   1.387       .  A
C52          C55   1.396       .  A
C53          C56   1.379       .  A
C54          C60   1.379       .  A
C55          C63   1.382       .  A
C56          N57   1.347       .  A
C56          H69   1.082       .  S
N57          C58   1.354       .  A
N57         C664   1.433       .  S
C58          H59   1.083       .  S
C60          N61   1.346       .  A
C60          H70   1.082       .  S
N61          C62   1.347       .  A
N61         N155   1.400   1_545  S
C62          H68   1.082       .  S
C63          N64   1.358       .  A
C63          H65   1.082       .  S
N64          C66   1.360       .  A
N64         C693   1.443       .  S
C66          H67   1.082       .  S
C71          C72   1.548       .  S
C71          C77   1.525       .  S
C71          C75   1.547       .  S
C71         C584   1.556       .  S
C72          H79   1.077       .  S
C72          C73   1.373       .  D
C73          C74   1.555       .  S
C73         C633   1.534       .  S
C74          C78   1.569       .  S
C74          C76   1.547       .  S
C74          H80   1.098       .  S
C75          H81   1.084       .  S
C75          C76   1.370       .  D
C76         C684   1.516       .  S
C77          H82   1.086       .  S
C77          C78   1.362       .  D
C78         C613   1.499       .  S
C83          C84   1.531       .  S
C83          C89   1.543       .  S
C83          C87   1.547       .  S
C83         C544   1.542       .  S
C84          H91   1.086       .  S
C84          C85   1.367       .  D
C85          C86   1.550       .  S
C85         C773   1.508       .  S
C86          C90   1.551       .  S
C86          C88   1.543       .  S
C86          H92   1.107       .  S
C87          H93   1.082       .  S
C87          C88   1.364       .  D
C88         C673   1.502       .  S
C89          H94   1.084       .  S
C89          C90   1.363       .  D
C90         C564   1.490       .  S
C95          C97   1.531       .  S
C95          C99   1.535       .  S
C95          C98   1.567       .  S
C95         C493   1.572       .  S
C96         C100   1.542       .  S
C96         C102   1.551       .  S
C96         C101   1.547       .  S
C96         C624   1.562       .  S
C97         C105   1.372       .  A
C97         C100   1.396       .  A
C98         C109   1.390       .  A
C98         C101   1.416       .  A
C99         C113   1.378       .  A
C99         C102   1.395       .  A
C100        C103   1.381       .  A
C101        C107   1.379       .  A
C102        C110   1.384       .  A
C103        N104   1.356       .  A
C103        H116   1.080       .  S
N104        C105   1.350       .  A
N104        C533   1.427       .  S
C105        H106   1.083       .  S
C107        N108   1.356       .  A
C107        H117   1.084       .  S
N108        C109   1.362       .  A
C109        H115   1.075       .  S
C110        N111   1.352       .  A
C110        H112   1.079       .  S
N111        C113   1.352       .  A
N111        C513   1.431       .  S
C113        H114   1.082       .  S
C118        C119   1.547       .  S
C118        C124   1.529       .  S
C118        C122   1.549       .  S
C118        C424   1.548       .  S
C119        H126   1.085       .  S
C119        C120   1.364       .  D
C120        C121   1.542       .  S
C120        C444   1.507       .  S
C121        C125   1.542       .  S
C121        C123   1.547       .  S
C121        H127   1.108       .  S
C122        H128   1.074       .  S
C122        C123   1.375       .  D
C123        C464   1.507       .  S
C124        H129   1.086       .  S
C124        C125   1.357       .  D
C125        C524   1.483       .  S
C130        C131   1.544       .  S
C130        C136   1.530       .  S
C130        C134   1.560       .  S
C130        C384   1.558       .  S
C131        H138   1.082       .  S
C131        C132   1.369       .  D
C132        C133   1.546       .  S
C132        C413   1.508       .  S
C133        C137   1.545       .  S
C133        C135   1.541       .  S
C133        H139   1.107       .  S
C134        H140   1.084       .  S
C134        C135   1.375       .  D
C135        C653   1.510       .  S
C136        H141   1.086       .  S
C136        C137   1.362       .  D
C137        C504   1.488       .  S
C142        C144   1.538       .  S
C142        C146   1.534       .  S
C142        C145   1.549       .  S
C142        C753   1.555       .  S
C143        C147   1.553       .  S
C143        C149   1.548       .  S
C143        C148   1.532       .  S
C143        C473   1.546       .  S
C144        C152   1.377       .  A
C144        C147   1.397       .  A
C145        C156   1.382       .  A
C145        C148   1.403       .  A
C146        C160   1.375       .  A
C146        C149   1.395       .  A
C147        C150   1.385       .  A
C148        C154   1.371       .  A
C149        C157   1.388       .  A
C150        N151   1.355       .  A
C150        H163   1.080       .  S
N151        C152   1.348       .  A
N151        C364   1.430       .  S
C152        H153   1.082       .  S
C154        N155   1.349       .  A
C154        H164   1.082       .  S
N155        C156   1.358       .  A
C156        H162   1.081       .  S
C157        N158   1.362       .  A
C157        H159   1.082       .  S
N158        C160   1.356       .  A
N158        C344   1.443       .  S
C160        H161   1.083       .  S
C165        C166   1.545       .  S
C165        C171   1.557       .  S
C165        C169   1.531       .  S
C165        C313   1.559       .  S
C166        H173   1.079       .  S
C166        C167   1.366       .  D
C167        C168   1.546       .  S
C167        C793   1.510       .  S
C168        C172   1.548       .  S
C168        C170   1.548       .  S
C168        H174   1.109       .  S
C169        H175   1.086       .  S
C169        C170   1.362       .  D
C170        C373   1.493       .  S
C171        H176   1.085       .  S
C171        C172   1.375       .  D
C172        C333   1.512       .  S
C177        C178   1.546       .  S
C177        C183   1.533       .  S
C177        C181   1.548       .  S
C177        C264   1.562       .  S
C178        H185   1.084       .  S
C178        C179   1.365       .  D
C179        C180   1.555       .  S
C179        C484   1.513       .  S
C180        C184   1.559       .  S
C180        C182   1.557       .  S
C180        H186   1.109       .  S
C181        H187   1.085       .  S
C181        C182   1.374       .  D
C182        C353   1.514       .  S
C183        H188   1.086       .  S
C183        C184   1.369       .  D
C184        C293   1.515       .  S
C189        C191   1.533       .  S
C189        C193   1.542       .  S
C189        C192   1.569       .  S
C189        C604   1.563       .  S
C190        C194   1.535       .  S
C190        C196   1.524       .  S
C190        C195   1.552       .  S
C190        C324   1.554       .  S
C191        C199   1.378       .  A
C191        C194   1.399       .  A
C192        C203   1.393   1_554  A
C192        C195   1.416       .  A
C193        C207   1.382       .  A
C193        C196   1.386       .  A
C194        C197   1.379       .  A
C195        C201   1.376   1_554  A
C196        C204   1.373       .  A
C197        N198   1.352       .  A
C197        H210   1.082       .  S
N198        C199   1.351       .  A
N198        C453   1.438       .  S
C199        H200   1.082       .  S
C201        N202   1.353       .  A
C201        H211   1.082       .  S
N202        C203   1.359       .  A
N202        N225   1.409       .  S
C203        H209   1.081       .  S
C204        N205   1.356       .  A
C204        H206   1.083       .  S
N205        C207   1.358       .  A
N205        C853   1.438       .  S
C207        H208   1.082       .  S
C212        C214   1.537       .  S
C212        C216   1.524       .  S
C212        C215   1.565       .  S
C212        C284   1.553       .  S
C213        C217   1.531       .  S
C213        C219   1.526       .  S
C213        C218   1.554       .  S
C213        C573   1.545       .  S
C214        C222   1.376       .  A
C214        C217   1.392       .  A
C215        C226   1.390       .  A
C215        C218   1.425       .  A
C216        C230   1.378       .  A
C216        C219   1.380       .  A
C217        C220   1.378       .  A
C218        C224   1.384       .  A
C219        C227   1.375       .  A
C220        N221   1.355       .  A
C220        H233   1.082       .  S
N221        C222   1.354       .  A
N221        C404   1.435       .  S
C222        H223   1.083       .  S
C224        N225   1.351       .  A
C224        H234   1.081       .  S
N225        C226   1.357       .  A
C226        H232   1.082       .  S
C227        N228   1.353       .  A
C227        H229   1.083       .  S
N228        C230   1.355       .  A
N228        C733   1.429       .  S
C230        H231   1.082       .  S
O235        C243   1.294       .  A
O235       Co255   2.106   1_444  S
O236        C244   1.261       .  A
O236       Co256   2.005   1_545  S
O237        C245   1.261       .  A
O237       Co257   1.956       .  S
O238        C246   1.255   1_556  A
O238       Co258   1.957       .  S
O239        C245   1.282       .  A
O239       Co256   2.045   1_445  S
O240        C246   1.274       .  A
O240       Co255   2.047   1_544  S
O241        C244   1.255       .  A
O241       Co258   1.964       .  S
O242        C243   1.258   1_556  A
O242       Co257   1.907       .  S
C243        C833   1.514       .  S
C244        C393   1.481       .  S
C245        C553   1.474       .  S
C246        C593   1.516       .  S
O247        C260   1.265       .  A
O247       Co255   1.979       .  S
O248        C261   1.252       .  A
O248       Co256   1.976   1_455  S
O249        C262   1.299   1_556  A
O249       Co257   2.094   1_565  S
O250        C263   1.280       .  A
O250       Co258   2.044   1_565  S
O251        C263   1.269       .  A
O251       Co256   1.977       .  S
O252        C262   1.274       .  A
O252       Co255   1.896   1_454  S
O253        C260   1.269       .  A
O253       Co258   2.009   1_565  S
O254        C261   1.262       .  A
O254       Co257   2.036   1_565  S
Co255       O259   2.039   1_565  S
Co256       O259   2.048   1_565  S
Co257       O259   2.024   1_455  S
Co258       O259   2.031       .  S
C260        C433   1.499   1_556  S
C261        C713   1.502       .  S
C262        C304   1.486       .  S
C263        C273   1.491       .  S
C264        C265   1.426       .  A
C264        C269   1.425       .  A
C265        C266   1.415       .  A
C265       Br277   1.920       .  S
C266        C267   1.407       .  A
C266       Br281   1.935       .  S
C267        C268   1.409       .  A
C267        C270   1.500       .  S
C268        C269   1.412       .  A
C268       Br276   1.931       .  S
C269       Br280   1.935       .  S
C270        C271   1.411       .  A
C270        C275   1.413       .  A
C271        C272   1.412       .  A
C271       Br282   1.932       .  S
C272        C273   1.415       .  A
C272       Br278   1.925       .  S
C273        C274   1.411       .  A
C274        C275   1.412       .  A
C274       Br283   1.923       .  S
C275       Br279   1.930       .  S
C284        C285   1.433       .  A
C284        C289   1.423       .  A
C285        C286   1.406       .  A
C285       Br297   1.943       .  S
C286        C287   1.403       .  A
C286       Br301   1.935       .  S
C287        C288   1.410       .  A
C287        C290   1.499       .  S
C288        C289   1.419       .  A
C288       Br296   1.928       .  S
C289       Br300   1.930       .  S
C290        C291   1.407       .  A
C290        C295   1.409       .  A
C291        C292   1.416       .  A
C291       Br302   1.930       .  S
C292        C293   1.424       .  A
C292       Br298   1.932       .  S
C293        C294   1.420       .  A
C294        C295   1.413       .  A
C294       Br303   1.921       .  S
C295       Br299   1.935       .  S
C304        C305   1.414       .  A
C304        C309   1.414       .  A
C305        C306   1.411       .  A
C305       Br317   1.932   1_554  S
C306        C307   1.409       .  A
C306       Br321   1.928       .  S
C307        C308   1.411       .  A
C307        C310   1.492       .  S
C308        C309   1.408       .  A
C308       Br316   1.933       .  S
C309       Br320   1.932       .  S
C310        C311   1.404       .  A
C310        C315   1.404       .  A
C311        C312   1.410       .  A
C311       Br322   1.934       .  S
C312        C313   1.432       .  A
C312       Br318   1.937       .  S
C313        C314   1.426       .  A
C314        C315   1.412       .  A
C314       Br323   1.923       .  S
C315       Br319   1.934       .  S
C324        C325   1.427       .  A
C324        C329   1.424       .  A
C325        C326   1.407       .  A
C325       Br337   1.938       .  S
C326        C327   1.405       .  A
C326       Br341   1.934       .  S
C327        C328   1.408       .  A
C327        C330   1.494       .  S
C328        C329   1.416       .  A
C328       Br336   1.929       .  S
C329       Br340   1.932       .  S
C330        C331   1.405       .  A
C330        C335   1.407       .  A
C331        C332   1.408       .  A
C331       Br342   1.934       .  S
C332        C333   1.417       .  A
C332       Br338   1.913       .  S
C333        C334   1.421       .  A
C334        C335   1.416       .  A
C334       Br343   1.922       .  S
C335       Br339   1.929       .  S
C344        C345   1.410       .  A
C344        C349   1.412       .  A
C345        C346   1.408       .  A
C345       Br357   1.926       .  S
C346        C347   1.409       .  A
C346       Br361   1.929       .  S
C347        C348   1.409       .  A
C347        C350   1.490       .  S
C348        C349   1.410       .  A
C348       Br356   1.930       .  S
C349       Br360   1.921       .  S
C350        C351   1.405       .  A
C350        C355   1.405       .  A
C351        C352   1.411       .  A
C351       Br362   1.932       .  S
C352        C353   1.422       .  A
C352       Br358   1.923       .  S
C353        C354   1.419       .  A
C354        C355   1.411       .  A
C354       Br363   1.914       .  S
C355       Br359   1.934       .  S
C364        C365   1.403       .  A
C364        C369   1.406       .  A
C365        C366   1.406       .  A
C365       Br377   1.925       .  S
C366        C367   1.413       .  A
C366       Br381   1.930       .  S
C367        C368   1.410       .  A
C367        C370   1.483       .  S
C368        C369   1.403       .  A
C368       Br376   1.930       .  S
C369       Br380   1.925       .  S
C370        C371   1.406       .  A
C370        C375   1.408       .  A
C371        C372   1.405       .  A
C371       Br382   1.934       .  S
C372        C373   1.412       .  A
C372       Br378   1.915       .  S
C373        C374   1.419       .  A
C374        C375   1.408       .  A
C374       Br383   1.933       .  S
C375       Br379   1.933       .  S
C384        C385   1.425       .  A
C384        C389   1.432       .  A
C385        C386   1.412       .  A
C385       Br397   1.922       .  S
C386        C387   1.404       .  A
C386       Br401   1.933       .  S
C387        C388   1.401       .  A
C387        C390   1.487       .  S
C388        C389   1.410       .  A
C388       Br396   1.934       .  S
C389       Br400   1.930       .  S
C390        C391   1.407       .  A
C390        C395   1.410       .  A
C391        C392   1.406       .  A
C391       Br402   1.931       .  S
C392        C393   1.414       .  A
C392       Br398   1.931       .  S
C393        C394   1.412       .  A
C394        C395   1.410       .  A
C394       Br403   1.927       .  S
C395       Br399   1.929       .  S
C404        C405   1.411       .  A
C404        C409   1.410       .  A
C405        C406   1.403       .  A
C405       Br417   1.928       .  S
C406        C407   1.409       .  A
C406       Br421   1.933       .  S
C407        C408   1.409       .  A
C407        C410   1.480       .  S
C408        C409   1.405       .  A
C408       Br416   1.929       .  S
C409       Br420   1.928       .  S
C410        C411   1.403       .  A
C410        C415   1.403       .  A
C411        C412   1.409       .  A
C411       Br422   1.934       .  S
C412        C413   1.428       .  A
C412       Br418   1.939       .  S
C413        C414   1.424       .  A
C414        C415   1.406       .  A
C414       Br423   1.923       .  S
C415       Br419   1.940       .  S
C424        C425   1.424       .  A
C424        C429   1.424       .  A
C425        C426   1.397       .  A
C425       Br437   1.930       .  S
C426        C427   1.401       .  A
C426       Br441   1.937       .  S
C427        C428   1.407       .  A
C427        C430   1.481       .  S
C428        C429   1.416       .  A
C428       Br436   1.931       .  S
C429       Br440   1.929       .  S
C430        C431   1.404       .  A
C430        C435   1.404       .  A
C431        C432   1.403       .  A
C431       Br442   1.938       .  S
C432        C433   1.420       .  A
C432       Br438   1.920       .  S
C433        C434   1.423       .  A
C434        C435   1.410       .  A
C434       Br443   1.935   1_554  S
C435       Br439   1.929       .  S
C444        C445   1.425       .  A
C444        C449   1.420       .  A
C445        C446   1.406       .  A
C445       Br457   1.919       .  S
C446        C447   1.400       .  A
C446       Br461   1.936       .  S
C447        C448   1.402       .  A
C447        C450   1.476       .  S
C448        C449   1.406       .  A
C448       Br456   1.933       .  S
C449       Br460   1.920       .  S
C450        C451   1.406       .  A
C450        C455   1.407       .  A
C451        C452   1.405       .  A
C451       Br462   1.929       .  S
C452        C453   1.415       .  A
C452       Br458   1.930       .  S
C453        C454   1.413       .  A
C454        C455   1.402       .  A
C454       Br463   1.931       .  S
C455       Br459   1.932       .  S
C464        C465   1.424       .  A
C464        C469   1.422       .  A
C465        C466   1.410       .  A
C465       Br477   1.936       .  S
C466        C467   1.408       .  A
C466       Br481   1.932       .  S
C467        C468   1.405       .  A
C467        C470   1.488       .  S
C468        C469   1.407       .  A
C468       Br476   1.937       .  S
C469       Br480   1.924       .  S
C470        C471   1.411       .  A
C470        C475   1.408       .  A
C471        C472   1.412       .  A
C471       Br482   1.929       .  S
C472        C473   1.416       .  A
C472       Br478   1.924       .  S
C473        C474   1.411       .  A
C474        C475   1.401       .  A
C474       Br483   1.927       .  S
C475       Br479   1.927       .  S
C484        C485   1.421       .  A
C484        C489   1.413       .  A
C485        C486   1.417       .  A
C485       Br497   1.935       .  S
C486        C487   1.415       .  A
C486       Br501   1.932       .  S
C487        C488   1.416       .  A
C487        C490   1.514       .  S
C488        C489   1.417       .  A
C488       Br496   1.931       .  S
C489       Br500   1.925       .  S
C490        C491   1.408       .  A
C490        C495   1.413       .  A
C491        C492   1.416       .  A
C491       Br502   1.939       .  S
C492        C493   1.440       .  A
C492       Br498   1.944       .  S
C493        C494   1.420       .  A
C494        C495   1.418       .  A
C494       Br503   1.922       .  S
C495       Br499   1.928       .  S
C504        C505   1.410       .  A
C504        C509   1.415       .  A
C505        C506   1.407       .  A
C505       Br517   1.918       .  S
C506        C507   1.406       .  A
C506       Br521   1.930       .  S
C507        C508   1.406       .  A
C507        C510   1.479       .  S
C508        C509   1.404       .  A
C508       Br516   1.934       .  S
C509       Br520   1.926       .  S
C510        C511   1.408       .  A
C510        C515   1.411       .  A
C511        C512   1.402       .  A
C511       Br522   1.930       .  S
C512        C513   1.407       .  A
C512       Br518   1.925       .  S
C513        C514   1.404       .  A
C514        C515   1.407       .  A
C514       Br523   1.924       .  S
C515       Br519   1.928       .  S
C524        C525   1.415       .  A
C524        C529   1.409       .  A
C525        C526   1.406       .  A
C525       Br537   1.934       .  S
C526        C527   1.408       .  A
C526       Br541   1.931       .  S
C527        C528   1.408       .  A
C527        C530   1.479       .  S
C528        C529   1.403       .  A
C528       Br536   1.934       .  S
C529       Br540   1.922       .  S
C530        C531   1.410       .  A
C530        C535   1.412       .  A
C531        C532   1.404       .  A
C531       Br542   1.930       .  S
C532        C533   1.406       .  A
C532       Br538   1.926       .  S
C533        C534   1.402       .  A
C534        C535   1.403       .  A
C534       Br543   1.925       .  S
C535       Br539   1.930       .  S
C544        C545   1.423       .  A
C544        C549   1.429       .  A
C545        C546   1.403       .  A
C545       Br557   1.929       .  S
C546        C547   1.402       .  A
C546       Br561   1.932       .  S
C547        C548   1.401       .  A
C547        C550   1.474       .  S
C548        C549   1.407       .  A
C548       Br556   1.935       .  S
C549       Br560   1.933       .  S
C550        C551   1.405       .  A
C550        C555   1.407       .  A
C551        C552   1.401       .  A
C551       Br562   1.934       .  S
C552        C553   1.411       .  A
C552       Br558   1.925       .  S
C553        C554   1.410       .  A
C554        C555   1.405       .  A
C554       Br563   1.920   1_455  S
C555       Br559   1.930       .  S
C564        C565   1.413       .  A
C564        C569   1.408       .  A
C565        C566   1.409       .  A
C565       Br577   1.930       .  S
C566        C567   1.411       .  A
C566       Br581   1.931       .  S
C567        C568   1.410       .  A
C567        C570   1.489       .  S
C568        C569   1.407       .  A
C568       Br576   1.932       .  S
C569       Br580   1.916       .  S
C570        C571   1.406       .  A
C570        C575   1.409       .  A
C571        C572   1.405       .  A
C571       Br582   1.940       .  S
C572        C573   1.432       .  A
C572       Br578   1.942       .  S
C573        C574   1.418       .  A
C574        C575   1.411       .  A
C574       Br583   1.926       .  S
C575       Br579   1.928       .  S
C584        C585   1.420       .  A
C584        C589   1.426       .  A
C585        C586   1.407       .  A
C585       Br597   1.934       .  S
C586        C587   1.408       .  A
C586       Br601   1.931       .  S
C587        C588   1.410       .  A
C587        C590   1.499       .  S
C588        C589   1.417       .  A
C588       Br596   1.931       .  S
C589       Br600   1.933       .  S
C590        C591   1.404       .  A
C590        C595   1.410       .  A
C591        C592   1.407       .  A
C591       Br602   1.939       .  S
C592        C593   1.431       .  A
C592       Br598   1.938   1_554  S
C593        C594   1.425       .  A
C594        C595   1.420       .  A
C594       Br603   1.932       .  S
C595       Br599   1.929       .  S
C604        C605   1.423       .  A
C604        C609   1.436       .  A
C605        C606   1.417       .  A
C605       Br617   1.926       .  S
C606        C607   1.409       .  A
C606       Br621   1.929       .  S
C607        C608   1.404       .  A
C607        C610   1.501       .  S
C608        C609   1.411       .  A
C608       Br616   1.936       .  S
C609       Br620   1.944       .  S
C610        C611   1.411       .  A
C610        C615   1.413       .  A
C611        C612   1.414       .  A
C611       Br622   1.929       .  S
C612        C613   1.415       .  A
C612       Br618   1.930       .  S
C613        C614   1.409       .  A
C614        C615   1.412       .  A
C614       Br623   1.929       .  S
C615       Br619   1.928       .  S
C624        C625   1.409       .  A
C624        C629   1.416       .  A
C625        C626   1.405       .  A
C625       Br637   1.926       .  S
C626        C627   1.412       .  A
C626       Br641   1.929       .  S
C627        C628   1.416       .  A
C627        C630   1.506       .  S
C628        C629   1.421       .  A
C628       Br636   1.926       .  S
C629       Br640   1.925       .  S
C630        C631   1.405       .  A
C630        C635   1.410       .  A
C631        C632   1.409       .  A
C631       Br642   1.934       .  S
C632        C633   1.430       .  A
C632       Br638   1.936       .  S
C633        C634   1.432       .  A
C634        C635   1.422       .  A
C634       Br643   1.927       .  S
C635       Br639   1.934       .  S
C644        C645   1.423       .  A
C644        C649   1.432       .  A
C645        C646   1.405       .  A
C645       Br657   1.929       .  S
C646        C647   1.403       .  A
C646       Br661   1.934       .  S
C647        C648   1.407       .  A
C647        C650   1.491       .  S
C648        C649   1.416       .  A
C648       Br656   1.933       .  S
C649       Br660   1.937       .  S
C650        C651   1.406       .  A
C650        C655   1.405       .  A
C651        C652   1.415       .  A
C651       Br662   1.929       .  S
C652        C653   1.420       .  A
C652       Br658   1.921       .  S
C653        C654   1.417       .  A
C654        C655   1.406       .  A
C654       Br663   1.914       .  S
C655       Br659   1.937       .  S
C664        C665   1.405       .  A
C664        C669   1.407       .  A
C665        C666   1.406       .  A
C665       Br677   1.925       .  S
C666        C667   1.412       .  A
C666       Br681   1.931       .  S
C667        C668   1.410       .  A
C667        C670   1.483       .  S
C668        C669   1.404       .  A
C668       Br676   1.929       .  S
C669       Br680   1.923       .  S
C670        C671   1.408       .  A
C670        C675   1.404       .  A
C671        C672   1.412       .  A
C671       Br682   1.931       .  S
C672        C673   1.421       .  A
C672       Br678   1.931       .  S
C673        C674   1.417       .  A
C674        C675   1.403       .  A
C674       Br683   1.914       .  S
C675       Br679   1.939       .  S
C684        C685   1.423       .  A
C684        C689   1.425       .  A
C685        C686   1.411       .  A
C685       Br697   1.922       .  S
C686        C687   1.406       .  A
C686       Br701   1.936       .  S
C687        C688   1.406       .  A
C687        C690   1.495       .  S
C688        C689   1.415       .  A
C688       Br696   1.932       .  S
C689       Br700   1.931       .  S
C690        C691   1.409       .  A
C690        C695   1.413       .  A
C691        C692   1.406       .  A
C691       Br702   1.931       .  S
C692        C693   1.409       .  A
C692       Br698   1.920       .  S
C693        C694   1.409       .  A
C694        C695   1.415       .  A
C694       Br703   1.924       .  S
C695       Br699   1.927       .  S
C704        C705   1.423       .  A
C704        C709   1.432       .  A
C705        C706   1.412       .  A
C705       Br717   1.926       .  S
C706        C707   1.409       .  A
C706       Br721   1.932       .  S
C707        C708   1.406       .  A
C707        C710   1.501       .  S
C708        C709   1.415       .  A
C708       Br716   1.934       .  S
C709       Br720   1.932       .  S
C710        C711   1.407       .  A
C710        C715   1.413       .  A
C711        C712   1.409       .  A
C711       Br722   1.937       .  S
C712        C713   1.420       .  A
C712       Br718   1.918       .  S
C713        C714   1.413       .  A
C714        C715   1.417       .  A
C714       Br723   1.922       .  S
C715       Br719   1.927       .  S
C724        C725   1.413       .  A
C724        C729   1.410       .  A
C725        C726   1.406       .  A
C725       Br737   1.930       .  S
C726        C727   1.407       .  A
C726       Br741   1.931       .  S
C727        C728   1.408       .  A
C727        C730   1.479       .  S
C728        C729   1.406       .  A
C728       Br736   1.928       .  S
C729       Br740   1.932       .  S
C730        C731   1.410       .  A
C730        C735   1.409       .  A
C731        C732   1.406       .  A
C731       Br742   1.929       .  S
C732        C733   1.404       .  A
C732       Br738   1.926       .  S
C733        C734   1.405       .  A
C734        C735   1.404       .  A
C734       Br743   1.927       .  S
C735       Br739   1.928       .  S
C744        C745   1.428       .  A
C744        C749   1.427       .  A
C745        C746   1.411       .  A
C745       Br757   1.928       .  S
C746        C747   1.407       .  A
C746       Br761   1.940       .  S
C747        C748   1.405       .  A
C747        C750   1.497       .  S
C748        C749   1.416       .  A
C748       Br756   1.930       .  S
C749       Br760   1.932       .  S
C750        C751   1.411       .  A
C750        C755   1.403       .  A
C751        C752   1.421       .  A
C751       Br762   1.929       .  S
C752        C753   1.425       .  A
C752       Br758   1.930       .  S
C753        C754   1.426       .  A
C754        C755   1.401       .  A
C754       Br763   1.939       .  S
C755       Br759   1.935       .  S
C764        C765   1.411       .  A
C764        C769   1.407       .  A
C765        C766   1.403       .  A
C765       Br777   1.917       .  S
C766        C767   1.405       .  A
C766       Br781   1.932       .  S
C767        C768   1.409       .  A
C767        C770   1.478       .  S
C768        C769   1.404       .  A
C768       Br776   1.931       .  S
C769       Br780   1.923       .  S
C770        C771   1.401       .  A
C770        C775   1.403       .  A
C771        C772   1.408       .  A
C771       Br782   1.935       .  S
C772        C773   1.425       .  A
C772       Br778   1.921       .  S
C773        C774   1.429       .  A
C774        C775   1.404       .  A
C774       Br783   1.934       .  S
C775       Br779   1.939       .  S
C784        C785   1.408       .  A
C784        C789   1.409       .  A
C785        C786   1.407       .  A
C785       Br797   1.926       .  S
C786        C787   1.411       .  A
C786       Br801   1.929       .  S
C787        C788   1.408       .  A
C787        C790   1.482       .  S
C788        C789   1.403       .  A
C788       Br796   1.929       .  S
C789       Br800   1.926       .  S
C790        C791   1.403       .  A
C790        C795   1.404       .  A
C791        C792   1.404       .  A
C791       Br802   1.942       .  S
C792        C793   1.422       .  A
C792       Br798   1.916       .  S
C793        C794   1.428       .  A
C794        C795   1.412       .  A
C794       Br803   1.937       .  S
C795       Br799   1.931       .  S
C804        C805   1.423       .  A
C804        C809   1.429       .  A
C805        C806   1.413       .  A
C805       Br817   1.927       .  S
C806        C807   1.406       .  A
C806       Br821   1.932       .  S
C807        C808   1.408       .  A
C807        C810   1.503       .  S
C808        C809   1.420       .  A
C808       Br816   1.934       .  S
C809       Br820   1.925       .  S
C810        C811   1.413       .  A
C810        C815   1.411       .  A
C811        C812   1.417       .  A
C811       Br822   1.926       .  S
C812        C813   1.417       .  A
C812       Br818   1.921       .  S
C813        C814   1.407       .  A
C814        C815   1.408       .  A
C814       Br823   1.922       .  S
C815       Br819   1.924       .  S
C824        C825   1.423       .  A
C824        C829   1.428       .  A
C825        C826   1.407       .  A
C825       Br837   1.920       .  S
C826        C827   1.404       .  A
C826       Br841   1.935       .  S
C827        C828   1.411       .  A
C827        C830   1.501       .  S
C828        C829   1.421       .  A
C828       Br836   1.931       .  S
C829       Br840   1.932       .  S
C830        C831   1.409       .  A
C830        C835   1.406       .  A
C831        C832   1.413       .  A
C831       Br842   1.935       .  S
C832        C833   1.423       .  A
C832       Br838   1.930       .  S
C833        C834   1.430       .  A
C834        C835   1.416       .  A
C834       Br843   1.936       .  S
C835       Br839   1.932       .  S
C844        C845   1.425       .  A
C844        C849   1.424       .  A
C845        C846   1.411       .  A
C845       Br857   1.917       .  S
C846        C847   1.402       .  A
C846       Br861   1.936       .  S
C847        C848   1.401       .  A
C847        C850   1.483       .  S
C848        C849   1.407       .  A
C848       Br856   1.936       .  S
C849       Br860   1.918       .  S
C850        C851   1.408       .  A
C850        C855   1.409       .  A
C851        C852   1.405       .  A
C851       Br862   1.931       .  S
C852        C853   1.411       .  A
C852       Br858   1.928       .  S
C853        C854   1.411       .  A
C854        C855   1.408       .  A
C854       Br863   1.927       .  S
C855       Br859   1.929       .  S
C864        C865   1.419       .  A
C864        C869   1.423       .  A
C865        C866   1.412       .  A
C865       Br877   1.921       .  S
C866        C867   1.408       .  A
C866       Br881   1.934       .  S
C867        C868   1.406       .  A
C867        C870   1.496       .  S
C868        C869   1.414       .  A
C868       Br876   1.930       .  S
C869       Br880   1.933       .  S
C870        C871   1.405       .  A
C870        C875   1.404       .  A
C871        C872   1.412       .  A
C871       Br882   1.932       .  S
C872        C873   1.427       .  A
C872       Br878   1.937       .  S
C873        C874   1.431       .  A
C874        C875   1.414       .  A
C874       Br883   1.930       .  S
C875       Br879   1.934       .  S
C884        C885   1.413       .  A
C884        C889   1.417       .  A
C885        C886   1.409       .  A
C885       Br897   1.920       .  S
C886        C887   1.410       .  A
C886       Br901   1.934       .  S
C887        C888   1.412       .  A
C887        C890   1.498       .  S
C888        C889   1.414       .  A
C888       Br896   1.930       .  S
C889       Br900   1.934       .  S
C890        C891   1.406       .  A
C890        C895   1.410       .  A
C891        C892   1.409       .  A
C891       Br902   1.937       .  S
C892        C893   1.436       .  A
C892       Br898   1.940       .  S
C893        C894   1.414       .  A
C894        C895   1.412       .  A
C894       Br903   1.920       .  S
C895       Br899   1.925       .  S
