geometry optimzed in LAMMPS
_audit_creation_date              2020-12-01 
_audit_creation_method            'lammps2cif' 
_symmetry_space_group_name_H-M    'P1' 
_symmetry_Int_Tables_number       1 
_symmetry_cell_setting            triclinic 
loop_ 
_symmetry_equiv_pos_as_xyz 
  x,y,z 
_cell_length_a                    63.98619387 
_cell_length_b                    64.09999705498359 
_cell_length_c                    35.37422440586907 
_cell_angle_alpha                 85.78991705566776 
_cell_angle_beta                  91.12585628733888 
_cell_angle_gamma                 121.00570782184744 
loop_ 
_atom_site_label 
_atom_site_type_symbol 
_atom_site_fract_x 
_atom_site_fract_y 
_atom_site_fract_z 
_atom_site_charge 
N1          N  0.54264283  0.87379600  0.45033082    -0.03300
C2          C  0.54068782  0.85160488  0.45589364    -0.00700
C3          C  0.60536548  0.89147269  0.96090948    -0.23600
C4          C  0.60628757  0.91061484  0.97722188    -0.23800
C5          C  0.58896702  0.91434837  0.95959850    -0.00800
H6          H  0.61491207  0.88228259  0.97064631     0.13000
H7          H  0.61690090  0.91944353  0.00150103     0.13000
N8          N  0.35193969  0.89860367  0.47361357    -0.03300
C9          C  0.33217830  0.87553850  0.47425094    -0.00700
C10         C  0.32557573  0.86838087  0.43788554    -0.23600
C11         C  0.34149823  0.88736980  0.41375516    -0.23800
C12         C  0.35746038  0.90555458  0.43607884    -0.00800
H13         H  0.30988529  0.85153760  0.42981274     0.13000
H14         H  0.34172232  0.88773822  0.38311536     0.13000
O15         O  0.55978230  0.01301142  0.24625416    -0.79900
O16         O  0.57584947  0.05487813  0.14704174    -0.80000
O17         O  0.53722606  0.99874546  0.15975098    -0.80000
O18         O  0.57636841  0.09194699  0.23100229    -0.79900
O19         O  0.54110964  0.01979236  0.10481960    -0.80000
O20         O  0.58611219  0.06392986  0.24278119    -0.80000
O21         O  0.57276832  0.08719020  0.15446864    -0.79900
O22         O  0.52198569  0.98604574  0.23531859    -0.80000
C23         C  0.54218868  0.99110837  0.24984500     1.09700
C24         C  0.58467289  0.07781672  0.14270413     1.09600
C25         C  0.54191353  0.00265330  0.12345875     1.09800
C26         C  0.59089979  0.08550910  0.24511740     1.09600
O27         O  0.54619907  0.06360849  0.28139146    -0.79900
O28         O  0.50124896  0.01111478  0.14340739    -0.80000
O29         O  0.49495765  0.00990011  0.23121601    -0.80000
O30         O  0.51916046  0.06436245  0.16252958    -0.79900
O31         O  0.53591137  0.05739930  0.11659653    -0.80000
O32         O  0.51954091  0.01431825  0.27892251    -0.80000
O33         O  0.52354444  0.06679754  0.23724080    -0.79900
O34         O  0.48935584  0.97731714  0.17957530    -0.80000
Co35       Co  0.55265822  0.03871700  0.25835744     1.51500
Co36       Co  0.53986563  0.03297262  0.14960028     1.51700
Co37       Co  0.51638825  0.00661832  0.19556167     1.51600
Co38       Co  0.54720184  0.07545911  0.19634543     1.51500
O39         O  0.54153880  0.04132170  0.20405331    -1.41900
C40         C  0.53171637  0.07080943  0.27013973     1.09700
C41         C  0.48529649  0.98816026  0.15170827     1.09800
C42         C  0.49853917  0.00831887  0.26650053     1.09700
C43         C  0.52241869  0.06481170  0.12755900     1.09700
N44         N  0.49190187  0.17671708  0.40340261    -0.03300
C45         C  0.48309555  0.19137899  0.39167542    -0.00700
C46         C  0.46369647  0.18659916  0.41485780    -0.23600
C47         C  0.45312967  0.16192662  0.95634824    -0.23800
C48         C  0.47808675  0.16305273  0.43448005    -0.00800
H49         H  0.45447979  0.19680168  0.41466190     0.13000
H50         H  0.44077422  0.15539410  0.98063570     0.13000
N51         N  0.72384720  0.19099168  0.46224095    -0.03300
C52         C  0.74707976  0.21061313  0.46229807    -0.00700
C53         C  0.75548522  0.21918983  0.42534370    -0.23600
C54         C  0.73716259  0.20462087  0.40194000    -0.23800
C55         C  0.71801016  0.18753108  0.42512456    -0.00800
H56         H  0.77348051  0.23400695  0.41638024     0.13000
H57         H  0.73788529  0.20599207  0.37126109     0.13000
O58         O  0.05779331  0.57586652  0.40550930    -0.79900
O59         O  0.02879396  0.54002997  0.27177871    -0.80000
O60         O  0.09311985  0.57696768  0.32794693    -0.80000
O61         O  0.00906888  0.54790758  0.40238843    -0.79900
O62         O  0.05729871  0.57268049  0.32250546    -0.80000
O63         O  0.02405478  0.54555874  0.45912292    -0.80000
O64         O  0.01180745  0.54726165  0.31940043    -0.79900
O65         O  0.09287754  0.57810318  0.40407339    -0.80000
C66         C  0.08055846  0.58789102  0.41025759     1.09700
C67         C  0.01460497  0.54659759  0.28331988     1.09600
C68         C  0.07981912  0.58517022  0.31549395     1.09800
C69         C  0.00927068  0.54911783  0.43889016     1.09600
O70         O  0.02528981  0.50537137  0.43975245    -0.79900
O71         O  0.07110687  0.54139826  0.28922684    -0.80000
O72         O  0.08255722  0.52867177  0.41395915    -0.80000
O73         O  0.99601434  0.49639832  0.33090905    -0.79900
O74         O  0.03018921  0.50243391  0.31092565    -0.80000
O75         O  0.06846369  0.54356748  0.45365606    -0.80000
O76         O  0.99354196  0.49645036  0.40644220    -0.79900
O77         O  0.08421457  0.52755984  0.33615765    -0.80000
Co78       Co  0.04060228  0.54005878  0.42025155     1.51500
Co79       Co  0.04241964  0.53706663  0.31826126     1.51700
Co80       Co  0.08527515  0.55113601  0.37059544     1.51600
Co81       Co  0.00823979  0.52363444  0.36570956     1.51500
O82         O  0.04711070  0.53242110  0.37118668    -1.41900
C83         C  0.00336571  0.49064538  0.43292103     1.09700
C84         C  0.08364442  0.53222566  0.30094773     1.09800
C85         C  0.08202225  0.53498470  0.44674172     1.09700
C86         C  0.00753582  0.48939687  0.31230246     1.09700
N87         N  0.21030663  0.52801737  0.10168831    -0.03300
C88         C  0.23204619  0.52936405  0.09771323    -0.00700
C89         C  0.24318642  0.53201341  0.13230220    -0.23600
C90         C  0.22786580  0.53223505  0.15858668    -0.23800
C91         C  0.20781196  0.52976202  0.13922036    -0.00800
H92         H  0.26023770  0.53276335  0.13797079     0.13000
H93         H  0.23081091  0.53356525  0.18876822     0.13000
N94         N  0.90384238  0.34647505  0.11605133    -0.03300
C95         C  0.88623627  0.32228480  0.11647337    -0.00700
C96         C  0.88466933  0.31080261  0.15189719    -0.23600
C97         C  0.90158810  0.32810715  0.17407941    -0.23800
C98         C  0.91303572  0.34969008  0.15163156    -0.00800
H99         H  0.87194445  0.29188829  0.16096355     0.13000
H100        H  0.90461541  0.32545928  0.20380027     0.13000
N101        N  0.89513597  0.56790566  0.08090466    -0.03300
C102        C  0.87223208  0.56433704  0.07862638    -0.00700
C103        C  0.86352168  0.56437911  0.11400537    -0.23600
C104        C  0.88122549  0.56776496  0.13923697    -0.23800
C105        C  0.90028702  0.56964052  0.11856638    -0.00800
H106        H  0.84599211  0.56210866  0.12067017     0.13000
H107        H  0.87993815  0.56791963  0.16966574     0.13000
N108        N  0.15456442  0.71954943  0.07287958    -0.03300
C109        C  0.16937520  0.74428614  0.06822474    -0.00700
C110        C  0.16508637  0.75519101  0.09704067    -0.23600
C111        C  0.14756476  0.73689423  0.12061395    -0.23800
C112        C  0.14163086  0.71534574  0.10554071    -0.00800
H113        H  0.17542208  0.77432461  0.10245260     0.13000
H114        H  0.14164210  0.73895372  0.14781909     0.13000
O115        O  0.54243838  0.51845138  0.07339858    -0.79900
O116        O  0.51127227  0.52401448  0.23281002    -0.80000
O117        O  0.54908541  0.48486641  0.17791088    -0.80000
O118        O  0.48962400  0.51819231  0.10989329    -0.79900
O119        O  0.52302993  0.49127429  0.20711370    -0.80000
O120        O  0.51762820  0.54298556  0.06731938    -0.80000
O121        O  0.48697908  0.50946211  0.18635964    -0.79900
O122        O  0.52253915  0.49073491  0.12062279    -0.80000
C123        C  0.52893388  0.49622424  0.08577536     1.09700
C124        C  0.48983686  0.51262483  0.22113985     1.09600
C125        C  0.53289531  0.47818357  0.20352853     1.09800
C126        C  0.49532737  0.52788947  0.07648779     1.09600
O127        O  0.55610798  0.58240996  0.10593290    -0.79900
O128        O  0.55253371  0.52742796  0.24978635    -0.80000
O129        O  0.57373479  0.52124039  0.12321182    -0.80000
O130        O  0.51905692  0.56244313  0.19391172    -0.79900
O131        O  0.55452465  0.56496298  0.20409562    -0.80000
O132        O  0.58251848  0.55866788  0.10977549    -0.80000
O133        O  0.51758980  0.57002153  0.11724787    -0.79900
O134        O  0.57351142  0.53117206  0.19851623    -0.80000
Co135      Co  0.54915531  0.54991169  0.09325471     1.51500
Co136      Co  0.53981793  0.52955093  0.20215348     1.51700
Co137      Co  0.54572563  0.51135567  0.15894876     1.51600
Co138      Co  0.50485686  0.53923958  0.15179065     1.51500
O139        O  0.53416568  0.53501047  0.14673857    -1.41900
C140        C  0.53862869  0.58634282  0.10428247     1.09700
C141        C  0.57201418  0.53107278  0.23523379     1.09800
C142        C  0.58854988  0.54270097  0.10958727     1.09700
C143        C  0.54037386  0.57308221  0.20801609     1.09700
N144        N  0.52367322  0.36632247  0.41947748    -0.03300
C145        C  0.53104081  0.34981988  0.42496778    -0.00700
C146        C  0.53321480  0.34535780  0.46331510    -0.23600
C147        C  0.52709212  0.35936735  0.48215645    -0.23800
C148        C  0.52144841  0.37210637  0.45488963    -0.00800
H149        H  0.53783276  0.33247978  0.47636445     0.13000
H150        H  0.55055959  0.36747694  0.99432670     0.13000
N151        N  0.35586533  0.50350954  0.42185783    -0.03300
C152        C  0.33206513  0.49625364  0.42866831    -0.00700
C153        C  0.31801978  0.48451621  0.39831830    -0.23600
C154        C  0.33339243  0.48451084  0.37201410    -0.23800
C155        C  0.35652443  0.49619273  0.38685841    -0.00800
H156        H  0.29873686  0.47759081  0.39491880     0.13000
H157        H  0.32823148  0.47694650  0.34466552     0.13000
N158        N  0.71367934  0.55967005  0.44408301    -0.03300
C159        C  0.73384187  0.55749993  0.44606050    -0.00700
C160        C  0.74099588  0.55584773  0.41045343    -0.23600
C161        C  0.72497705  0.55689228  0.38553005    -0.23800
C162        C  0.70833974  0.55924345  0.40642737    -0.00800
H163        H  0.75652568  0.55433839  0.40336863     0.13000
H164        H  0.72527041  0.55573404  0.35519214     0.13000
N165        N  0.58168957  0.71399378  0.40462368    -0.03300
C166        C  0.59435737  0.73886282  0.40194460    -0.00700
C167        C  0.61189547  0.74786593  0.37321960    -0.23600
C168        C  0.60990744  0.72813343  0.35730590    -0.23800
C169        C  0.59128041  0.70770612  0.37676903    -0.00800
H170        H  0.62339574  0.76672182  0.36260534     0.13000
H171        H  0.61976818  0.72861038  0.33242737     0.13000
C172        C  0.39744985  0.51366840  0.26303869    -0.17600
C173        C  0.41484212  0.51404032  0.23933067    -0.19800
C174        C  0.43264469  0.50949623  0.25450503     0.20800
C175        C  0.43301876  0.50461493  0.29401775    -0.02700
C176        C  0.41510909  0.50375662  0.31792584    -0.05800
C177        C  0.39735462  0.50838837  0.30224536     0.21100
C178        C  0.41479689  0.49802941  0.35732800     0.19300
C179        C  0.43297682  0.49398623  0.37252065    -0.17300
C180        C  0.45118984  0.49554191  0.34892821    -0.19500
C181        C  0.45130795  0.50071137  0.30959043     0.20800
C182        C  0.46953382  0.50245421  0.28556307    -0.32500
C183        C  0.46913123  0.50724823  0.24612009     0.01500
C184        C  0.45036196  0.51027804  0.23084780    -0.23900
C185        C  0.37946170  0.50722087  0.32582562    -0.28400
C186        C  0.37824772  0.50059434  0.36487297     0.07100
C187        C  0.39603322  0.49596746  0.38052318    -0.27100
H188        H  0.38388128  0.51724365  0.25063735     0.11900
H189        H  0.41444151  0.51801085  0.20910325     0.13000
H190        H  0.43316096  0.48969987  0.40268829     0.12100
H191        H  0.46509768  0.49253043  0.36143377     0.11300
H192        H  0.48414724  0.50036048  0.29747952     0.16700
H193        H  0.45029031  0.51455078  0.20061828     0.12600
H194        H  0.36590856  0.51086116  0.31347995     0.15500
H195        H  0.39490139  0.49004514  0.41026455     0.15200
C196        C  0.44238144  0.55372330  0.45205138    -0.17600
C197        C  0.46284182  0.55738766  0.97017138    -0.19800
C198        C  0.45931490  0.53996588  0.99984007     0.20800
C199        C  0.43533211  0.52114407  0.01021652    -0.02700
C200        C  0.41516721  0.51990926  0.99094461    -0.05800
C201        C  0.41853404  0.53494886  0.46227756     0.21100
C202        C  0.39126466  0.50085112  0.00119223     0.19300
C203        C  0.38767647  0.48352238  0.03089274    -0.17300
C204        C  0.40757323  0.48482547  0.05006190    -0.19500
C205        C  0.43143544  0.50347559  0.03986114     0.20800
C206        C  0.45136974  0.50498407  0.05944557    -0.32500
C207        C  0.47533793  0.52407612  0.05032682     0.01500
C208        C  0.47921183  0.54128423  0.01988127    -0.23900
C209        C  0.39855321  0.53124821  0.44008189    -0.28400
C210        C  0.37498944  0.51133999  0.44920810     0.07100
C211        C  0.37144568  0.49862690  0.98031524    -0.27100
H212        H  0.44566899  0.56627555  0.42754072     0.11900
H213        H  0.48107747  0.57202174  0.96180940     0.13000
H214        H  0.36945651  0.46874754  0.03901685     0.12100
H215        H  0.40428899  0.47117401  0.07286014     0.11300
H216        H  0.44811085  0.49166765  0.08282315     0.16700
H217        H  0.49753383  0.55628846  0.01292067     0.12600
H218        H  0.40145612  0.54275830  0.41435507     0.15500
H219        H  0.35332231  0.48305881  0.98658174     0.15200
C220        C  0.60484538  0.64725715  0.32372896    -0.17600
C221        C  0.59851469  0.62976088  0.29748702    -0.19800
C222        C  0.57625981  0.62022740  0.27869734     0.20800
C223        C  0.55995616  0.62798554  0.28699358    -0.02700
C224        C  0.56626272  0.64552287  0.31375827    -0.05800
C225        C  0.58897948  0.65543013  0.33176581     0.21100
C226        C  0.55026630  0.65378781  0.32144501     0.19300
C227        C  0.52787473  0.64401240  0.30294160    -0.17300
C228        C  0.52155325  0.62649726  0.27659916    -0.19500
C229        C  0.53755304  0.61851777  0.26815293     0.20800
C230        C  0.53155017  0.60121356  0.24133226    -0.32500
C231        C  0.54768132  0.59324878  0.23309978     0.01500
C232        C  0.57006315  0.60302802  0.25184758    -0.23900
C233        C  0.59598523  0.67423350  0.35594574    -0.28400
C234        C  0.58065045  0.68331179  0.36233646     0.07100
C235        C  0.55753806  0.67259191  0.34588502    -0.27100
H236        H  0.62233998  0.65468087  0.33731738     0.11900
H237        H  0.61116856  0.62388247  0.29155955     0.13000
H238        H  0.51539473  0.65017272  0.30843688     0.12100
H239        H  0.50423851  0.61937470  0.26252919     0.11300
H240        H  0.51415602  0.59366373  0.22738126     0.16700
H241        H  0.58256745  0.59692139  0.24610494     0.12600
H242        H  0.61403881  0.68294124  0.36791773     0.15500
H243        H  0.54611326  0.68024517  0.34958990     0.15200
C244        C  0.50325694  0.63632492  0.06081088    -0.17600
C245        C  0.51759141  0.63943698  0.47487287    -0.19800
C246        C  0.54056006  0.66101133  0.47332077     0.20800
C247        C  0.53679030  0.65743763  0.99951175    -0.02700
C248        C  0.53908565  0.64204756  0.02804233    -0.05800
C249        C  0.52196977  0.63112605  0.05844232     0.21100
C250        C  0.55786446  0.63679476  0.02529644     0.19300
C251        C  0.57443680  0.64738223  0.99439160    -0.17300
C252        C  0.57198996  0.66238446  0.96591920    -0.19500
C253        C  0.55302783  0.66728595  0.96790287     0.20800
C254        C  0.54930264  0.68085847  0.93811270    -0.32500
C255        C  0.57161837  0.69901731  0.43959829     0.01500
C256        C  0.54828482  0.67783489  0.44121329    -0.23900
C257        C  0.52313650  0.61433782  0.08498585    -0.28400
C258        C  0.54119067  0.60817478  0.08174211     0.07100
C259        C  0.55899863  0.62015511  0.05243120    -0.27100
H260        H  0.49311351  0.60544883  0.50602924     0.11900
H261        H  0.50503195  0.63577191  0.45180168     0.13000
H262        H  0.58896713  0.64356532  0.99172073     0.12100
H263        H  0.58466264  0.66977137  0.94195238     0.11300
H264        H  0.56097215  0.68741174  0.91296846     0.16700
H265        H  0.53649959  0.67414893  0.41710818     0.12600
H266        H  0.50926826  0.60520242  0.10725506     0.15500
H267        H  0.57277124  0.61532979  0.04920884     0.15200
C268        C  0.67872580  0.57901749  0.28954574    -0.17600
C269        C  0.65999731  0.57326285  0.26379183    -0.19800
C270        C  0.63563766  0.55696992  0.27498887     0.20800
C271        C  0.63013128  0.54647622  0.31277690    -0.02700
C272        C  0.64913765  0.55192021  0.33864443    -0.05800
C273        C  0.67348562  0.56826475  0.32679953     0.21100
C274        C  0.64387236  0.54055238  0.37589548     0.19300
C275        C  0.61940068  0.52456865  0.38728523    -0.17300
C276        C  0.60049882  0.51967266  0.36195599    -0.19500
C277        C  0.60571170  0.53035792  0.32454384     0.20800
C278        C  0.58699991  0.52529209  0.29867050    -0.32500
C279        C  0.59235169  0.53569372  0.26089279     0.01500
C280        C  0.61674508  0.55119011  0.24912512    -0.23900
C281        C  0.69235475  0.57268022  0.35166274    -0.28400
C282        C  0.68762012  0.55995898  0.38760936     0.07100
C283        C  0.66321312  0.54447233  0.40019067    -0.27100
H284        H  0.69741535  0.59151890  0.28004886     0.11900
H285        H  0.66458526  0.58156192  0.23505784     0.13000
H286        H  0.61487579  0.51567665  0.41566990     0.12100
H287        H  0.58179777  0.50724830  0.37149199     0.11300
H288        H  0.56817435  0.51312356  0.30790337     0.16700
H289        H  0.62095436  0.55934978  0.22026949     0.12600
H290        H  0.71107615  0.58479555  0.34187351     0.15500
H291        H  0.65930132  0.53432514  0.42758765     0.15200
C292        C  0.66513874  0.52567892  0.56253690    -0.17600
C293        C  0.64669136  0.51730706  0.07511627    -0.19800
C294        C  0.63904471  0.53434746  0.07174003     0.20800
C295        C  0.65057592  0.55435932  0.04449917    -0.02700
C296        C  0.66916722  0.55675203  0.02016772    -0.05800
C297        C  0.67537561  0.54401091  0.53275444     0.21100
C298        C  0.68000122  0.57626380  0.99198802     0.19300
C299        C  0.67263449  0.59349986  0.98893818    -0.17300
C300        C  0.65434786  0.59118992  0.01307101    -0.19500
C301        C  0.64301011  0.57157017  0.04070794     0.20800
C302        C  0.62371993  0.56845140  0.06366926    -0.32500
C303        C  0.61145497  0.54806074  0.08999677     0.01500
C304        C  0.61958119  0.53130908  0.09421453    -0.23900
C305        C  0.69154672  0.54431773  0.50593403    -0.28400
C306        C  0.70045185  0.56178197  0.47478163     0.07100
C307        C  0.69723810  0.57764835  0.96630987    -0.27100
H308        H  0.67022735  0.51195104  0.56610787     0.11900
H309        H  0.63952080  0.50965055  0.60937730     0.13000
H310        H  0.68072670  0.60856592  0.96739913     0.12100
H311        H  0.64876898  0.60455503  0.00965574     0.11300
H312        H  0.61752799  0.58132635  0.05976902     0.16700
H313        H  0.61029018  0.51548426  0.11427955     0.12600
H314        H  0.69615117  0.53020693  0.50802203     0.15500
H315        H  0.70490677  0.59214743  0.94382480     0.15200
C316        C  0.48866954  0.42379477  0.31737620    -0.17600
C317        C  0.48713305  0.40751631  0.34741737    -0.19800
C318        C  0.50332869  0.39884242  0.34907611     0.20800
C319        C  0.52079996  0.40610904  0.31967565    -0.02700
C320        C  0.52197919  0.42209129  0.28890979    -0.05800
C321        C  0.50616357  0.43137868  0.28811330     0.21100
C322        C  0.53956758  0.42943650  0.25966609     0.19300
C323        C  0.55558324  0.42055590  0.26112224    -0.17300
C324        C  0.55473366  0.40514184  0.29194717    -0.19500
C325        C  0.53762749  0.39805773  0.32160126     0.20800
C326        C  0.53774791  0.38395406  0.35383770    -0.32500
C327        C  0.52093586  0.37731766  0.38391951     0.01500
C328        C  0.50299416  0.38382428  0.38031079    -0.23900
C329        C  0.50875106  0.44874775  0.25888863    -0.28400
C330        C  0.52678162  0.45671408  0.23022054     0.07100
C331        C  0.54156508  0.44632931  0.23029529    -0.27100
H332        H  0.47636620  0.43069666  0.31728634     0.11900
H333        H  0.47367756  0.40220761  0.36988576     0.13000
H334        H  0.56920851  0.42604174  0.23886620     0.12100
H335        H  0.56771778  0.39905981  0.29286847     0.11300
H336        H  0.55168735  0.37916206  0.35632624     0.16700
H337        H  0.48945712  0.37814436  0.40274755     0.12600
H338        H  0.49736183  0.45670169  0.25925734     0.15500
H339        H  0.55566373  0.45242901  0.20860407     0.15200
C340        C  0.54249046  0.47240498  0.96278837    -0.17600
C341        C  0.54380140  0.45535013  0.94184541    -0.19800
C342        C  0.53437984  0.43124028  0.95703858     0.20800
C343        C  0.52267392  0.42410518  0.99316344    -0.02700
C344        C  0.52166183  0.44139253  0.01451249    -0.05800
C345        C  0.53194540  0.46573784  0.99947414     0.21100
C346        C  0.51134574  0.43453815  0.05158004     0.19300
C347        C  0.50128892  0.41028869  0.06635530    -0.17300
C348        C  0.50202765  0.39313204  0.04509760    -0.19500
C349        C  0.51302689  0.39997697  0.00881654     0.20800
C350        C  0.51568364  0.38339967  0.98888799    -0.32500
C351        C  0.51599249  0.39075812  0.46500723     0.01500
C352        C  0.53036290  0.41509029  0.45033127    -0.23900
C353        C  0.53256289  0.48320293  0.02205975    -0.28400
C354        C  0.52352419  0.47680833  0.05987330     0.07100
C355        C  0.51226346  0.45222857  0.07391178    -0.27100
H356        H  0.55040611  0.49102558  0.95072046     0.11900
H357        H  0.55657782  0.46311570  0.42978584     0.13000
H358        H  0.49330289  0.40469600  0.09471093     0.12100
H359        H  0.49460745  0.37464818  0.05749414     0.11300
H360        H  0.50891895  0.36507217  0.00162372     0.16700
H361        H  0.54368238  0.41972791  0.42789203     0.12600
H362        H  0.54127425  0.50206148  0.01076736     0.15500
H363        H  0.50528303  0.44703818  0.10288442     0.15200
C364        C  0.81715411  0.60311466  0.98710360    -0.17600
C365        C  0.83836874  0.60404199  0.00034118    -0.19800
C366        C  0.83795546  0.58256203  0.01304452     0.20800
C367        C  0.81341327  0.56409049  0.52368253    -0.02700
C368        C  0.79144496  0.56223922  0.51081645    -0.05800
C369        C  0.79508485  0.58070068  0.98649749     0.21100
C370        C  0.77074776  0.53912528  0.50575674     0.19300
C371        C  0.77205743  0.51807316  0.51418335    -0.17300
C372        C  0.79365358  0.51988416  0.52756219    -0.19500
C373        C  0.81446004  0.54279557  0.53238889     0.20800
C374        C  0.83580506  0.54474010  0.54779921    -0.32500
C375        C  0.85751741  0.56217237  0.04494844     0.01500
C376        C  0.85868613  0.58350998  0.02910452    -0.23900
C377        C  0.76904861  0.58160609  0.48661647    -0.28400
C378        C  0.74894171  0.55871126  0.47900629     0.07100
C379        C  0.74960745  0.53753286  0.49022219    -0.27100
H380        H  0.81802008  0.61996206  0.97729031     0.11900
H381        H  0.85506026  0.62161740  0.00103959     0.13000
H382        H  0.75638672  0.50017770  0.51025673     0.12100
H383        H  0.79405209  0.50332351  0.53424616     0.11300
H384        H  0.83581674  0.52834127  0.55780134     0.16700
H385        H  0.87483453  0.60107171  0.03324471     0.12600
H386        H  0.77499275  0.59600231  0.95925923     0.15500
H387        H  0.73454109  0.51993055  0.48317014     0.15200
C388        C  0.24639894  0.47248414  0.03531836    -0.17600
C389        C  0.26259459  0.46828199  0.01590551    -0.19800
C390        C  0.28425463  0.48790677  0.99940583     0.20800
C391        C  0.29478594  0.51861515  0.49872094    -0.02700
C392        C  0.28056123  0.52666798  0.51569113    -0.05800
C393        C  0.25146089  0.49637267  0.03825891     0.21100
C394        C  0.29104403  0.55149253  0.52232865     0.19300
C395        C  0.31553374  0.56805605  0.51169921    -0.17300
C396        C  0.32950123  0.56014409  0.49438639    -0.19500
C397        C  0.31932055  0.53547160  0.48761604     0.20800
C398        C  0.33279926  0.52756098  0.46833262    -0.32500
C399        C  0.32187784  0.50307527  0.45968128     0.01500
C400        C  0.30003185  0.48384297  0.97837370    -0.23900
C401        C  0.23589311  0.50084212  0.05917432    -0.28400
C402        C  0.24190727  0.52486820  0.06403113     0.07100
C403        C  0.27723232  0.55909339  0.54114328    -0.27100
H404        H  0.22993524  0.45703720  0.04814236     0.11900
H405        H  0.25814279  0.44966382  0.01370681     0.13000
H406        H  0.32392092  0.58717268  0.51683507     0.12100
H407        H  0.34825137  0.57337374  0.48608598     0.11300
H408        H  0.35099322  0.54076132  0.45741810     0.16700
H409        H  0.29507611  0.46532819  0.97365089     0.12600
H410        H  0.22020614  0.48576058  0.07437814     0.15500
H411        H  0.28583048  0.57782674  0.54867607     0.15200
C412        C  0.97206637  0.59083297  0.24886341    -0.17600
C413        C  0.95649168  0.59452583  0.22484042    -0.19800
C414        C  0.94841942  0.58231299  0.19146893     0.20800
C415        C  0.95678475  0.56693721  0.18138722    -0.02700
C416        C  0.97288753  0.56360545  0.20521645    -0.05800
C417        C  0.98007298  0.57515709  0.23957714     0.21100
C418        C  0.98098247  0.54794540  0.19543025     0.19300
C419        C  0.97328951  0.53612575  0.16164046    -0.17300
C420        C  0.95687339  0.53900815  0.13844228    -0.19500
C421        C  0.94819542  0.55402196  0.14843976     0.20800
C422        C  0.93024770  0.55546283  0.12709915    -0.32500
C423        C  0.92162990  0.57054447  0.13726929     0.01500
C424        C  0.93131089  0.58439186  0.16889502    -0.23900
C425        C  0.99441818  0.57015716  0.26464549    -0.28400
C426        C  0.00198345  0.55411721  0.25543693     0.07100
C427        C  0.99582557  0.54362729  0.22035793    -0.27100
H428        H  0.97752197  0.59991883  0.27502070     0.11900
H429        H  0.95020191  0.60639375  0.23291042     0.13000
H430        H  0.97941903  0.52409918  0.15371410     0.12100
H431        H  0.95063236  0.52916533  0.11304159     0.11300
H432        H  0.92227792  0.54401960  0.10366569     0.16700
H433        H  0.92464918  0.59597952  0.17691855     0.12600
H434        H  0.99933048  0.57837369  0.29158742     0.15500
H435        H  0.00150645  0.53106179  0.21336536     0.15200
C436        C  0.90850519  0.53225454  0.48539447    -0.17600
C437        C  0.92510330  0.52893381  0.46519772    -0.19800
C438        C  0.95036685  0.54464532  0.46868319     0.20800
C439        C  0.95897603  0.56445812  0.49163018    -0.02700
C440        C  0.94218259  0.56822530  0.51114261    -0.05800
C441        C  0.91681409  0.55164791  0.50890496     0.21100
C442        C  0.95082907  0.58799060  0.53415270     0.19300
C443        C  0.97607034  0.60401715  0.53701334    -0.17300
C444        C  0.99266627  0.59997395  0.51842366    -0.19500
C445        C  0.98435056  0.58002913  0.49613344     0.20800
C446        C  0.00088534  0.57504230  0.47903755    -0.32500
C447        C  0.99237841  0.55521929  0.45635399     0.01500
C448        C  0.96715211  0.54050684  0.45053684    -0.23900
C449        C  0.90038951  0.55398570  0.53181206    -0.28400
C450        C  0.90908849  0.57283635  0.55659740     0.07100
C451        C  0.93418742  0.59056212  0.55569676    -0.27100
H452        H  0.88915296  0.51938616  0.48311548     0.11900
H453        H  0.91816372  0.51364008  0.44763951     0.13000
H454        H  0.98300566  0.61927538  0.55464202     0.12100
H455        H  0.01202792  0.61225454  0.52196924     0.11300
H456        H  0.02029351  0.58653450  0.48330228     0.16700
H457        H  0.96055897  0.52519115  0.43305251     0.12600
H458        H  0.88115483  0.54021269  0.53244423     0.15500
H459        H  0.94094045  0.60519730  0.57455503     0.15200
C460        C  0.93992742  0.44367571  0.22691793    -0.17600
C461        C  0.92768601  0.42532966  0.20189639    -0.19800
C462        C  0.93602073  0.40952101  0.19503806     0.20800
C463        C  0.95722135  0.41255050  0.21308922    -0.02700
C464        C  0.96982878  0.43136173  0.23793980    -0.05800
C465        C  0.96085889  0.44669665  0.24527431     0.21100
C466        C  0.99118894  0.43463741  0.25575441     0.19300
C467        C  0.99957524  0.41886516  0.24868595    -0.17300
C468        C  0.98668510  0.39978112  0.22491343    -0.19500
C469        C  0.96542876  0.39638821  0.20713209     0.20800
C470        C  0.95171867  0.37663705  0.18466390    -0.32500
C471        C  0.93032744  0.37327513  0.16729250     0.01500
C472        C  0.92296991  0.39015146  0.17170429    -0.23900
C473        C  0.97293139  0.46480962  0.27082206    -0.28400
C474        C  0.99433971  0.46844878  0.28845759     0.07100
C475        C  0.00363770  0.45353315  0.28035859    -0.27100
H476        H  0.93293485  0.45544809  0.23207078     0.09500
H477        H  0.91143236  0.42324051  0.18839521     0.13000
H478        H  0.01590488  0.42104666  0.26202292     0.12100
H479        H  0.99327984  0.38757192  0.22060184     0.11300
H480        H  0.95714228  0.36334846  0.18173080     0.16700
H481        H  0.90615274  0.38719021  0.15908623     0.12600
H482        H  0.96604467  0.47666738  0.27613035     0.15500
H483        H  0.02030551  0.45646675  0.29348397     0.15200
C484        C  0.99750004  0.42263581  0.51778176    -0.17600
C485        C  0.97975399  0.39720822  0.04214378    -0.19800
C486        C  0.95851281  0.39091791  0.54601105     0.20800
C487        C  0.94685229  0.40205500  0.52686765    -0.02700
C488        C  0.96072773  0.42358841  0.50286078    -0.05800
C489        C  0.98622763  0.43408165  0.49870108     0.21100
C490        C  0.94917960  0.43482483  0.48359016     0.19300
C491        C  0.92389316  0.42448788  0.48865114    -0.17300
C492        C  0.91022809  0.40340800  0.51297820    -0.19500
C493        C  0.92149066  0.39202669  0.53242975     0.20800
C494        C  0.90813992  0.37138465  0.55827895    -0.32500
C495        C  0.91646106  0.36341974  0.08366751     0.01500
C496        C  0.94083030  0.37044964  0.07584376    -0.23900
C497        C  0.00006077  0.45594063  0.47590749    -0.28400
C498        C  0.98871647  0.46722166  0.45635980     0.07100
C499        C  0.96317686  0.45635517  0.46007518    -0.27100
H500        H  0.01700378  0.43035331  0.51488080     0.11900
H501        H  0.98782959  0.38787115  0.05732225     0.13000
H502        H  0.91470794  0.43290291  0.47414952     0.12100
H503        H  0.89085257  0.39610628  0.51677887     0.11300
H504        H  0.88900740  0.36436555  0.56419982     0.16700
H505        H  0.94881664  0.36136756  0.09206403     0.12600
H506        H  0.01965143  0.46411094  0.47318188     0.15500
H507        H  0.95426953  0.46503371  0.44543711     0.15200
C508        C  0.13496874  0.49832437  0.27295073    -0.17600
C509        C  0.15212632  0.49781218  0.24984194    -0.19800
C510        C  0.15962805  0.51176400  0.21500770     0.20800
C511        C  0.14939173  0.52595651  0.20285053    -0.02700
C512        C  0.13189424  0.52630307  0.22602780    -0.05800
C513        C  0.12493036  0.51266762  0.26147915     0.21100
C514        C  0.12190462  0.54079721  0.21424865     0.19300
C515        C  0.12931937  0.55461354  0.17922405    -0.17300
C516        C  0.14690388  0.55449431  0.15644941    -0.19500
C517        C  0.15721742  0.54040693  0.16814818     0.20800
C518        C  0.17578962  0.54113922  0.14651722    -0.32500
C519        C  0.18622575  0.52720790  0.15872454     0.01500
C520        C  0.17772557  0.51229940  0.19271158    -0.23900
C521        C  0.10855571  0.51410061  0.28530744    -0.28400
C522        C  0.09886612  0.52882902  0.27411907     0.07100
C523        C  0.10523856  0.54175846  0.23820408    -0.27100
H524        H  0.12977356  0.48772671  0.30003732     0.11900
H525        H  0.15985743  0.48683584  0.25952887     0.13000
H526        H  0.12183537  0.56584996  0.16976667     0.12100
H527        H  0.15263984  0.56564189  0.12983890     0.11300
H528        H  0.18288821  0.55355682  0.12144294     0.16700
H529        H  0.18577269  0.50158967  0.20235910     0.12600
H530        H  0.10366931  0.50406802  0.31288681     0.15500
H531        H  0.09799828  0.55334497  0.22952817     0.15200
C532        C  0.18716562  0.58071370  0.50363389    -0.17600
C533        C  0.16688910  0.58034724  0.48718181    -0.19800
C534        C  0.14380737  0.55892405  0.48987140     0.20800
C535        C  0.14113172  0.53765038  0.50937745    -0.02700
C536        C  0.16160315  0.53809216  0.52631841    -0.05800
C537        C  0.18474599  0.55971661  0.52331097     0.21100
C538        C  0.15882364  0.51702985  0.54678196     0.19300
C539        C  0.13575267  0.49559162  0.54929442    -0.17300
C540        C  0.11563743  0.49495389  0.53161649    -0.19500
C541        C  0.11806546  0.51588692  0.51167421     0.20800
C542        C  0.09804753  0.51530878  0.49318915    -0.32500
C543        C  0.10070513  0.53642051  0.47345006     0.01500
C544        C  0.12352824  0.55822368  0.47246887    -0.23900
C545        C  0.19749069  0.54969215  0.05600625    -0.28400
C546        C  0.19419269  0.52753901  0.07236618     0.07100
C547        C  0.17892864  0.51807712  0.56554742    -0.27100
H548        H  0.19737176  0.58960621  0.02729252     0.11900
H549        H  0.16928774  0.59681926  0.47218388     0.13000
H550        H  0.13325199  0.47926011  0.56495708     0.12100
H551        H  0.09812409  0.47808972  0.53372017     0.11300
H552        H  0.08065461  0.49833550  0.49310048     0.16700
H553        H  0.12578994  0.57432804  0.45630205     0.12600
H554        H  0.21372942  0.56662202  0.06247948     0.15500
H555        H  0.17653311  0.50250023  0.58345123     0.15200
C556        C  0.06719345  0.64011055  0.22515143    -0.17600
C557        C  0.07501746  0.65687522  0.19333832    -0.19800
C558        C  0.09799621  0.66559405  0.17639320     0.20800
C559        C  0.11319857  0.65725804  0.19159361    -0.02700
C560        C  0.10556059  0.64083390  0.22423587    -0.05800
C561        C  0.08237442  0.63207382  0.24092687     0.21100
C562        C  0.12110387  0.63310854  0.24002755     0.19300
C563        C  0.14403037  0.64174194  0.22305662    -0.17300
C564        C  0.15150635  0.65782848  0.19055154    -0.19500
C565        C  0.13625848  0.66570187  0.17463344     0.20800
C566        C  0.14413451  0.68270844  0.14308629    -0.32500
C567        C  0.12973122  0.69215002  0.12930802     0.01500
C568        C  0.10650892  0.68324613  0.14555039    -0.23900
C569        C  0.07456808  0.61497634  0.27246065    -0.28400
C570        C  0.08971499  0.60661930  0.28762274     0.07100
C571        C  0.11321534  0.61633874  0.27184551    -0.27100
H572        H  0.04929599  0.63349855  0.23751228     0.11900
H573        H  0.06311328  0.66306815  0.18203477     0.13000
H574        H  0.15614119  0.63592757  0.23480310     0.12100
H575        H  0.16933219  0.66429949  0.17805576     0.11300
H576        H  0.16232021  0.69013736  0.13119611     0.16700
H577        H  0.09565459  0.69096086  0.13531439     0.12600
H578        H  0.05636783  0.60751306  0.28428966     0.15500
H579        H  0.12494367  0.60988726  0.28305848     0.15200
C580        C  0.08714926  0.66592136  0.51155103    -0.17600
C581        C  0.07597212  0.64663658  0.48788165    -0.19800
C582        C  0.08999903  0.63988121  0.46778623     0.20800
C583        C  0.11564434  0.65307464  0.47106620    -0.02700
C584        C  0.12696040  0.67257799  0.49509706    -0.05800
C585        C  0.11256085  0.67880500  0.51562102     0.21100
C586        C  0.15253469  0.68531281  0.49949103     0.19300
C587        C  0.16657901  0.67881755  0.47877444    -0.17300
C588        C  0.15538054  0.65951742  0.45494849    -0.19500
C589        C  0.12989571  0.64627740  0.45135435     0.20800
C590        C  0.11834557  0.62580950  0.42963235    -0.32500
C591        C  0.09266542  0.61191605  0.42737911     0.01500
C592        C  0.07872776  0.61959914  0.44570017    -0.23900
C593        C  0.12367624  0.69728685  0.54078205    -0.28400
C594        C  0.14899715  0.70944700  0.54680578     0.07100
C595        C  0.16343263  0.70367835  0.52540578    -0.27100
H596        H  0.07584268  0.67048756  0.52722737     0.11900
H597        H  0.05629138  0.63672601  0.48580075     0.13000
H598        H  0.18621037  0.68837887  0.48152026     0.12100
H599        H  0.16664607  0.65462085  0.43989936     0.11300
H600        H  0.12934279  0.62014584  0.41563323     0.16700
H601        H  0.05901866  0.60907975  0.44434095     0.12600
H602        H  0.11246750  0.70177663  0.55689674     0.15500
H603        H  0.18281645  0.71260281  0.52988422     0.15200
C604        C  0.80496307  0.28656525  0.57875995    -0.17600
C605        C  0.78355871  0.26907855  0.56183253    -0.19800
C606        C  0.78391431  0.25231176  0.53876178     0.20800
C607        C  0.80277547  0.25421663  0.03963377    -0.02700
C608        C  0.82486803  0.27266623  0.05456269    -0.05800
C609        C  0.82750357  0.29516308  0.06260675     0.21100
C610        C  0.84426374  0.26853589  0.06156042     0.19300
C611        C  0.84137120  0.24599591  0.05396840    -0.17300
C612        C  0.81962641  0.22785076  0.03899020    -0.19500
C613        C  0.80027918  0.23182751  0.03138254     0.20800
C614        C  0.77919279  0.21448653  0.01340572    -0.32500
C615        C  0.76405740  0.22011372  0.49450353     0.01500
C616        C  0.76299980  0.23599420  0.51888409    -0.23900
C617        C  0.84927532  0.31310001  0.07865874    -0.28400
C618        C  0.86842264  0.30878834  0.08686020     0.07100
C619        C  0.86585642  0.28661465  0.07736929    -0.27100
H620        H  0.80411209  0.29929223  0.59627435     0.11900
H621        H  0.76677663  0.26891591  0.56635031     0.13000
H622        H  0.85599672  0.24241797  0.05948683     0.12100
H623        H  0.81808785  0.21081084  0.03280670     0.11300
H624        H  0.77828774  0.19828675  0.00414353     0.16700
H625        H  0.74664091  0.23702374  0.51999566     0.12600
H626        H  0.85055376  0.32955444  0.08745678     0.15500
H627        H  0.88011390  0.28276662  0.08487521     0.15200
C628        C  0.47922558  0.26001336  0.33561881    -0.17600
C629        C  0.48613137  0.28407596  0.34153181    -0.19800
C630        C  0.50765707  0.29899931  0.36060819     0.20800
C631        C  0.52352401  0.29033865  0.37054148    -0.02700
C632        C  0.51649042  0.26600521  0.36477249    -0.05800
C633        C  0.49369035  0.25048879  0.34886751     0.21100
C634        C  0.53097222  0.25648131  0.37882552     0.19300
C635        C  0.55342559  0.27198054  0.39520825    -0.17300
C636        C  0.56047180  0.29611307  0.40068333    -0.19500
C637        C  0.54511865  0.30505657  0.38998069     0.20800
C638        C  0.54960121  0.32728535  0.40210915    -0.32500
C639        C  0.53217214  0.33433990  0.39691012     0.01500
C640        C  0.51220193  0.32115238  0.37366078    -0.23900
C641        C  0.48446146  0.22526200  0.35082928    -0.28400
C642        C  0.49727437  0.21540433  0.37004459     0.07100
C643        C  0.52144187  0.23118211  0.38053768    -0.27100
H644        H  0.46177916  0.24838763  0.32297542     0.11900
H645        H  0.47389019  0.29049983  0.33327011     0.13000
H646        H  0.56483405  0.26503198  0.40592327     0.12100
H647        H  0.57719141  0.30727917  0.41546167     0.11300
H648        H  0.56514819  0.33760498  0.41979118     0.16700
H649        H  0.49866151  0.32643307  0.36974203     0.12600
H650        H  0.46586359  0.21307140  0.34247078     0.15500
H651        H  0.53138872  0.22367435  0.39533473     0.15200
C652        C  0.64584337  0.08988406  0.04579010    -0.17600
C653        C  0.66536774  0.10538763  0.02079338    -0.19800
C654        C  0.67697968  0.13085715  0.02156474     0.20800
C655        C  0.66910106  0.14079007  0.04826372    -0.02700
C656        C  0.64922282  0.12511121  0.07333066    -0.05800
C657        C  0.63744676  0.09953353  0.07194340     0.21100
C658        C  0.64078265  0.13505735  0.09911186     0.19300
C659        C  0.65267224  0.16051932  0.10031013    -0.17300
C660        C  0.67244953  0.17601642  0.07573740    -0.19500
C661        C  0.68068163  0.16638895  0.04931041     0.20800
C662        C  0.69975764  0.18186995  0.02321191    -0.32500
C663        C  0.70710554  0.17209558  0.99562083     0.01500
C664        C  0.69588256  0.14654937  0.99549589    -0.23900
C665        C  0.61710514  0.08410485  0.09595298    -0.28400
C666        C  0.60800859  0.09388721  0.12088863     0.07100
C667        C  0.62025622  0.11943747  0.12256007    -0.27100
H668        H  0.63705680  0.07031744  0.04425636     0.11900
H669        H  0.67120276  0.09743925  0.00051111     0.13000
H670        H  0.64648364  0.16848551  0.11999485     0.12100
H671        H  0.68107503  0.19558383  0.07701356     0.11300
H672        H  0.70813136  0.20148413  0.02317132     0.16700
H673        H  0.70163160  0.13893220  0.97450443     0.12600
H674        H  0.60778395  0.06453083  0.09411680     0.15500
H675        H  0.61352901  0.12723287  0.14168274     0.15200
C676        C  0.63889429  0.16157929  0.36611840    -0.17600
C677        C  0.62241252  0.14881946  0.33790632    -0.19800
C678        C  0.62447990  0.13144205  0.31890577     0.20800
C679        C  0.64277012  0.12621574  0.32953142    -0.02700
C680        C  0.65934155  0.13901317  0.35815843    -0.05800
C681        C  0.65770337  0.15714277  0.37601350     0.21100
C682        C  0.67814285  0.13434643  0.36779122     0.19300
C683        C  0.67959161  0.11626771  0.34994133    -0.17300
C684        C  0.66301622  0.10340204  0.32198812    -0.19500
C685        C  0.64479460  0.10850276  0.31112243     0.20800
C686        C  0.62854800  0.09613153  0.28228727    -0.32500
C687        C  0.61035252  0.10132403  0.27116564     0.01500
C688        C  0.60853482  0.11912538  0.28964897    -0.23900
C689        C  0.67567946  0.17139262  0.40177895    -0.28400
C690        C  0.69528066  0.16780718  0.40957233     0.07100
C691        C  0.69595072  0.14875908  0.39346475    -0.27100
H692        H  0.63722923  0.17529611  0.37965198     0.11900
H693        H  0.60825341  0.15281649  0.33054575     0.13000
H694        H  0.69384902  0.11238414  0.35710041     0.12100
H695        H  0.66471019  0.08971842  0.30840117     0.11300
H696        H  0.62983117  0.08215571  0.26884057     0.16700
H697        H  0.59414031  0.12277693  0.28223776     0.12600
H698        H  0.67545827  0.18642572  0.41355761     0.15500
H699        H  0.71133796  0.14633472  0.39889859     0.15200
C700        C  0.48366183  0.08588859  0.97565271    -0.17600
C701        C  0.49153904  0.07349820  0.00082482    -0.19800
C702        C  0.49733563  0.08012388  0.03828504     0.20800
C703        C  0.49460757  0.09906927  0.05065380    -0.02700
C704        C  0.48701158  0.11174761  0.02520036    -0.05800
C705        C  0.48161337  0.10523772  0.98742455     0.21100
C706        C  0.48528063  0.13127449  0.03744940     0.19300
C707        C  0.49043261  0.13755428  0.07504359    -0.17300
C708        C  0.49760142  0.12479652  0.10035154    -0.19500
C709        C  0.49996664  0.10574810  0.08831320     0.20800
C710        C  0.50816728  0.09369285  0.11317684    -0.32500
C711        C  0.51187446  0.07550018  0.10086050     0.01500
C712        C  0.50626006  0.06857666  0.06344579    -0.23900
C713        C  0.48687237  0.12942703  0.45152602    -0.28400
C714        C  0.47418820  0.13874129  0.97389906     0.07100
C715        C  0.47896247  0.14460142  0.01174008    -0.27100
H716        H  0.49761121  0.09528153  0.43769199     0.11900
H717        H  0.49334150  0.05890034  0.99087225     0.13000
H718        H  0.48911843  0.15248291  0.08479245     0.12100
H719        H  0.50168221  0.13009220  0.12920990     0.11300
H720        H  0.51257115  0.09915685  0.14194350     0.16700
H721        H  0.50887634  0.05434513  0.05402761     0.12600
H722        H  0.48360293  0.12424595  0.42257006     0.15500
H723        H  0.47837860  0.16007154  0.02094148     0.15200
C724        C  0.54955036  0.12707549  0.37311974    -0.17600
C725        C  0.54565594  0.14407161  0.38980477    -0.19800
C726        C  0.52896718  0.15026636  0.37437278     0.20800
C727        C  0.51654946  0.13959778  0.34126458    -0.02700
C728        C  0.52026882  0.12228456  0.32472226    -0.05800
C729        C  0.53669110  0.11575588  0.34082245     0.21100
C730        C  0.50711240  0.11115040  0.29245483     0.19300
C731        C  0.49103003  0.11784120  0.27620864    -0.17300
C732        C  0.48731538  0.13485848  0.29257108    -0.19500
C733        C  0.49959980  0.14545037  0.32546713     0.20800
C734        C  0.49389249  0.16042046  0.34419895    -0.32500
C735        C  0.50433996  0.16921409  0.37907612     0.01500
C736        C  0.52317565  0.16556210  0.39269797    -0.23900
C737        C  0.53992831  0.09814345  0.32420262    -0.28400
C738        C  0.52668911  0.08690073  0.29192878     0.07100
C739        C  0.51018972  0.09351138  0.27672997    -0.27100
H740        H  0.56235796  0.12250350  0.38585025     0.11900
H741        H  0.55531755  0.15197370  0.41528404     0.13000
H742        H  0.48101118  0.10960992  0.25113220     0.12100
H743        H  0.47432332  0.13924723  0.28004923     0.11300
H744        H  0.47949145  0.16329258  0.33356460     0.16700
H745        H  0.53144487  0.17255069  0.41944600     0.12600
H746        H  0.55303235  0.09362365  0.33580061     0.15500
H747        H  0.49995928  0.08526927  0.25178808     0.15200
C748        C  0.25207860  0.85197181  0.51352978    -0.17600
C749        C  0.22803794  0.83259589  0.51900136    -0.19800
C750        C  0.22305799  0.80874021  0.52786898     0.20800
C751        C  0.24133444  0.79566976  0.02971504    -0.02700
C752        C  0.26673602  0.82383960  0.52507227    -0.05800
C753        C  0.27153200  0.84778016  0.51638056     0.21100
C754        C  0.28512326  0.81078963  0.03224026     0.19300
C755        C  0.27967998  0.78755105  0.04716849    -0.17300
C756        C  0.25540719  0.76866530  0.05396407    -0.19500
C757        C  0.23605135  0.77247242  0.04518721     0.20800
C758        C  0.21161678  0.75398276  0.05336718    -0.32500
C759        C  0.19245595  0.75837149  0.04573387     0.01500
C760        C  0.19911640  0.78951344  0.53568274    -0.23900
C761        C  0.29548580  0.86680100  0.50790730    -0.28400
C762        C  0.31436880  0.86187866  0.50527949     0.07100
C763        C  0.30931170  0.82942546  0.02293236    -0.27100
H764        H  0.25543196  0.87019795  0.50647962     0.11900
H765        H  0.21333452  0.83631639  0.51670473     0.13000
H766        H  0.29421556  0.78394750  0.05349254     0.12100
H767        H  0.25177441  0.75103780  0.06596189     0.11300
H768        H  0.20772367  0.73704769  0.06870370     0.16700
H769        H  0.18440947  0.79327322  0.53542238     0.12600
H770        H  0.29879772  0.88467688  0.49784445     0.15500
H771        H  0.32381824  0.82539734  0.02525095     0.15200
C772        C  0.41214391  0.90957084  0.12230384    -0.17600
C773        C  0.39325436  0.89545097  0.09799057    -0.19800
C774        C  0.38844825  0.90645393  0.06591212     0.20800
C775        C  0.40238002  0.93209572  0.05908200    -0.02700
C776        C  0.42181355  0.94637089  0.08334155    -0.05800
C777        C  0.42684200  0.93498097  0.11484658     0.21100
C778        C  0.43666138  0.97187671  0.07537203     0.19300
C779        C  0.43126701  0.98293578  0.04397244    -0.17300
C780        C  0.41180618  0.96887173  0.02035523    -0.19500
C781        C  0.39746293  0.94337953  0.02729577     0.20800
C782        C  0.37916311  0.92889874  0.00200541    -0.32500
C783        C  0.36686036  0.90313626  0.00641529     0.01500
C784        C  0.37090023  0.89217989  0.03955954    -0.23900
C785        C  0.44689168  0.94900870  0.13769446    -0.28400
C786        C  0.46252272  0.97438000  0.12933290     0.07100
C787        C  0.45695611  0.98570674  0.09826834    -0.27100
H788        H  0.41565201  0.90049934  0.14648288     0.11900
H789        H  0.38270145  0.87582687  0.10389407     0.13000
H790        H  0.44233382  0.00246816  0.03733124     0.12100
H791        H  0.40388273  0.98671369  0.50292627     0.11300
H792        H  0.37268664  0.94693091  0.48107815     0.16700
H793        H  0.36157704  0.87246765  0.04357391     0.12600
H794        H  0.45079163  0.93990696  0.16138181     0.15500
H795        H  0.46868952  0.00515264  0.09139278     0.15200
C796        C  0.41282414  0.97842693  0.30229817    -0.17600
C797        C  0.39318972  0.96511103  0.32789511    -0.19800
C798        C  0.39629625  0.95509149  0.36265612     0.20800
C799        C  0.41953046  0.95930106  0.37254043    -0.02700
C800        C  0.43932128  0.97287744  0.34691981    -0.05800
C801        C  0.43586077  0.98206876  0.31126686     0.21100
C802        C  0.46232426  0.97634614  0.35635836     0.19300
C803        C  0.46557445  0.96674753  0.39139749    -0.17300
C804        C  0.44585971  0.95296568  0.41655601    -0.19500
C805        C  0.42271256  0.94878039  0.40708842     0.20800
C806        C  0.40240514  0.93286441  0.43023225    -0.32500
C807        C  0.37911082  0.92752128  0.41926001     0.01500
C808        C  0.37628536  0.93953848  0.38650924    -0.23900
C809        C  0.45532952  0.99411203  0.28490172    -0.28400
C810        C  0.47814397  0.99723660  0.29413624     0.07100
C811        C  0.48156090  0.98868350  0.33013075    -0.27100
H812        H  0.40987762  0.98544562  0.27519243     0.11900
H813        H  0.37540498  0.96198267  0.31999491     0.13000
H814        H  0.48322629  0.96935552  0.39890483     0.12100
H815        H  0.44857903  0.94506058  0.44296543     0.11300
H816        H  0.40447565  0.92313489  0.45501938     0.16700
H817        H  0.35815801  0.93517459  0.37809771     0.12600
H818        H  0.45268221  0.00075187  0.25721512     0.15500
H819        H  0.49907076  0.99082434  0.33741739     0.15200
C820        C  0.52156872  0.77342488  0.41785599    -0.17600
C821        C  0.52888264  0.75628679  0.41735525    -0.19800
C822        C  0.55364779  0.76367045  0.41947836     0.20800
C823        C  0.57122606  0.78864281  0.42200249    -0.02700
C824        C  0.56385669  0.80598422  0.42220178    -0.05800
C825        C  0.53889103  0.79827024  0.42041045     0.21100
C826        C  0.58137865  0.83089563  0.42545726     0.19300
C827        C  0.60615354  0.83827334  0.42760824    -0.17300
C828        C  0.61348617  0.82114826  0.42685614    -0.19500
C829        C  0.59616654  0.79630828  0.42417250     0.20800
C830        C  0.60342035  0.77915693  0.42206384    -0.32500
C831        C  0.58614224  0.75448792  0.41712410     0.01500
C832        C  0.56120597  0.74669682  0.41746728    -0.23900
C833        C  0.53153756  0.81522114  0.42401751    -0.28400
C834        C  0.54868045  0.83957897  0.43080225     0.07100
C835        C  0.57366220  0.84762250  0.42929185    -0.27100
H836        H  0.50230399  0.76718962  0.41674452     0.11900
H837        H  0.51514825  0.73723797  0.41526865     0.13000
H838        H  0.61985230  0.85726460  0.43032296     0.12100
H839        H  0.63273308  0.82734209  0.42839983     0.11300
H840        H  0.62268589  0.78525943  0.42182098     0.16700
H841        H  0.54783448  0.72783093  0.41306985     0.12600
H842        H  0.51224874  0.80885756  0.42626275     0.15500
H843        H  0.58685920  0.86617901  0.43569552     0.15200
C844        C  0.52645603  0.91786422  0.03182290    -0.17600
C845        C  0.52050888  0.92932311  0.05822684    -0.19800
C846        C  0.53787818  0.95283990  0.06824209     0.20800
C847        C  0.56137408  0.96508372  0.05101047    -0.02700
C848        C  0.56735615  0.95354397  0.02438667    -0.05800
C849        C  0.54986624  0.92973391  0.01500109     0.21100
C850        C  0.59105437  0.96557715  0.00797857     0.19300
C851        C  0.60828829  0.98926366  0.01740664    -0.17300
C852        C  0.60223254  0.00087055  0.04328252    -0.19500
C853        C  0.57893182  0.98886804  0.06041281     0.20800
C854        C  0.57272999  0.00042156  0.08623273    -0.32500
C855        C  0.54939324  0.98842531  0.10315418     0.01500
C856        C  0.53207983  0.96457596  0.09454219    -0.23900
C857        C  0.55648574  0.91780509  0.99040470    -0.28400
C858        C  0.58040887  0.92926340  0.97564425     0.07100
C859        C  0.59742750  0.95330206  0.98376964    -0.27100
H860        H  0.51283540  0.89957940  0.02492114     0.11900
H861        H  0.50235193  0.91974788  0.07094101     0.13000
H862        H  0.62653040  0.99873167  0.00502140     0.12100
H863        H  0.61584038  0.01917646  0.05012868     0.11300
H864        H  0.58580852  0.01904230  0.09245152     0.16700
H865        H  0.51383174  0.95571036  0.10687491     0.12600
H866        H  0.49649283  0.87675519  0.51174124     0.15500
H867        H  0.61598138  0.96191009  0.97280341     0.15200
C868        C  0.58799523  0.96437226  0.33657164    -0.17600
C869        C  0.58813425  0.94752124  0.36414555    -0.19800
C870        C  0.56654748  0.92546318  0.37459236     0.20800
C871        C  0.54464636  0.92028300  0.35661394    -0.02700
C872        C  0.54452087  0.93730393  0.32870124    -0.05800
C873        C  0.56626610  0.95955888  0.31877510     0.21100
C874        C  0.52250729  0.93226898  0.31141084     0.19300
C875        C  0.50086497  0.91032544  0.32202806    -0.17300
C876        C  0.50095580  0.89360134  0.34973363    -0.19500
C877        C  0.52271036  0.89841234  0.36728867     0.20800
C878        C  0.52272430  0.88218238  0.39630127    -0.32500
C879        C  0.54429885  0.88744848  0.41503485     0.01500
C880        C  0.56624916  0.90893597  0.40359961    -0.23900
C881        C  0.56577048  0.97679471  0.29197857    -0.28400
C882        C  0.54377965  0.97203107  0.27478466     0.07100
C883        C  0.52233068  0.94946581  0.28450189    -0.27100
H884        H  0.60489036  0.98133177  0.32945247     0.11900
H885        H  0.60511840  0.95190700  0.37767879     0.13000
H886        H  0.48375911  0.90620705  0.30919542     0.12100
H887        H  0.48392632  0.87698225  0.35771107     0.11300
H888        H  0.50572231  0.86599025  0.40586790     0.16700
H889        H  0.58277782  0.91329255  0.41861624     0.12600
H890        H  0.58237672  0.99410453  0.28516181     0.15500
H891        H  0.50517805  0.94553934  0.27203415     0.15200
N892        N  0.57747144  0.89843842  0.93253649    -0.03300
C893        C  0.58745662  0.88411512  0.93382010    -0.00700
C894        C  0.53294542  0.84184000  0.49263334    -0.23600
C895        C  0.52942974  0.85804594  0.51029546    -0.23800
C896        C  0.53528647  0.87725419  0.48383080    -0.00800
H897        H  0.53064432  0.82489023  0.50541900     0.13000
H898        H  0.52354752  0.85622186  0.53945659     0.13000
N899        N  0.35364119  0.88837464  0.97514589    -0.03300
C900        C  0.33454751  0.86469350  0.97723009    -0.00700
C901        C  0.33041963  0.85527453  0.94214320    -0.23600
C902        C  0.34687320  0.87333579  0.91728774    -0.23800
C903        C  0.36089247  0.89338849  0.93774313    -0.00800
H904        H  0.31564115  0.83760947  0.93486486     0.13000
H905        H  0.34830613  0.87209742  0.88719075     0.13000
O906        O  0.55989658  0.01789752  0.73922352    -0.79900
O907        O  0.57695481  0.06098359  0.64724619    -0.80000
O908        O  0.53414792  0.00343456  0.65662745    -0.80000
O909        O  0.57614094  0.09627724  0.73322575    -0.79900
O910        O  0.54250941  0.02694502  0.60292435    -0.80000
O911        O  0.58600123  0.06822486  0.74077193    -0.80000
O912        O  0.57397732  0.09324486  0.65602805    -0.79900
O913        O  0.52156964  0.99101050  0.73158063    -0.80000
C914        C  0.54253108  0.99595428  0.74235511     1.09700
C915        C  0.58566806  0.08394529  0.64309507     1.09600
C916        C  0.53895806  0.00746855  0.62039686     1.09800
C917        C  0.59088646  0.08961419  0.74518651     1.09600
O918        O  0.54528593  0.06587608  0.78113700    -0.79900
O919        O  0.50191123  0.01754347  0.64119973    -0.80000
O920        O  0.49462406  0.01536140  0.73257070    -0.80000
O921        O  0.52097666  0.07225350  0.66080318    -0.79900
O922        O  0.53809409  0.06447589  0.61624336    -0.80000
O923        O  0.51952542  0.01720460  0.77790240    -0.80000
O924        O  0.52360944  0.07155355  0.73713853    -0.79900
O925        O  0.48777837  0.98375929  0.67919481    -0.80000
Co926      Co  0.55255687  0.04245644  0.75597074     1.51500
Co927      Co  0.54083872  0.03919008  0.64851202     1.51700
Co928      Co  0.51512162  0.01229175  0.69455640     1.51600
Co929      Co  0.54781669  0.08111323  0.69689763     1.51500
O930        O  0.54124567  0.04652342  0.70283303    -1.41900
C931        C  0.53021254  0.07256371  0.77106134     1.09700
C932        C  0.48503798  0.99484820  0.65025830     1.09800
C933        C  0.49832015  0.01193018  0.76726933     1.09700
C934        C  0.52545163  0.07311383  0.62606099     1.09700
N935        N  0.48336887  0.16841174  0.91688690    -0.03300
C936        C  0.47588921  0.18429460  0.90615155    -0.00700
C937        C  0.45716402  0.18049984  0.93001421    -0.23600
C938        C  0.46067903  0.16887487  0.44201525    -0.23800
C939        C  0.46927036  0.15468006  0.94757314    -0.00800
H940        H  0.44885797  0.19152976  0.93041801     0.13000
H941        H  0.44819048  0.16211233  0.46616042     0.13000
N942        N  0.72427059  0.18779453  0.96562428    -0.03300
C943        C  0.74672899  0.20832016  0.96837382    -0.00700
C944        C  0.75748263  0.21743962  0.93281523    -0.23600
C945        C  0.74143200  0.20241162  0.90722679    -0.23800
C946        C  0.72123400  0.18449751  0.92777122    -0.00800
H947        H  0.77538832  0.23323589  0.92630437     0.13000
H948        H  0.74402648  0.20451076  0.87673966     0.13000
O949        O  0.05829067  0.57084033  0.89930683    -0.79900
O950        O  0.02848252  0.53719304  0.76611861    -0.80000
O951        O  0.09396496  0.57356491  0.82012907    -0.80000
O952        O  0.01024001  0.54298160  0.89906793    -0.79900
O953        O  0.05823221  0.56950538  0.81600579    -0.80000
O954        O  0.02619108  0.53998761  0.95451791    -0.80000
O955        O  0.01253211  0.54401911  0.81564708    -0.79900
O956        O  0.09385832  0.57418412  0.89662860    -0.80000
C957        C  0.08108695  0.58346662  0.90312924     1.09700
C958        C  0.01472620  0.54386826  0.77925295     1.09600
C959        C  0.08062748  0.58176791  0.80795152     1.09800
C960        C  0.01101009  0.54361886  0.93571987     1.09600
O961        O  0.02699705  0.50018718  0.93276093    -0.79900
O962        O  0.07129241  0.53809612  0.78097942    -0.80000
O963        O  0.08456710  0.52487879  0.90493017    -0.80000
O964        O  0.99670744  0.49293783  0.82440635    -0.79900
O965        O  0.03090346  0.49954439  0.80353628    -0.80000
O966        O  0.07027538  0.53894570  0.94574819    -0.80000
O967        O  0.99504718  0.49193146  0.90046184    -0.79900
O968        O  0.08540422  0.52448341  0.82685166    -0.80000
Co969      Co  0.04191452  0.53509666  0.91378831     1.51500
Co970      Co  0.04307074  0.53387731  0.81146722     1.51700
Co971      Co  0.08650327  0.54757211  0.86237747     1.51600
Co972      Co  0.00929687  0.51959221  0.86044756     1.51500
O973        O  0.04828319  0.52846728  0.86392601    -1.41900
C974        C  0.00481620  0.48586987  0.92674181     1.09700
C975        C  0.08449268  0.52946013  0.79180777     1.09800
C976        C  0.08357391  0.53022816  0.93823138     1.09700
C977        C  0.00832096  0.48630475  0.80522721     1.09700
N978        N  0.21990085  0.54306515  0.59148911    -0.03300
C979        C  0.24316109  0.54821239  0.58594741    -0.00700
C980        C  0.25556475  0.55399720  0.61967284    -0.23600
C981        C  0.23963153  0.55226764  0.64677252    -0.23800
C982        C  0.21795243  0.54566502  0.62884380    -0.00800
H983        H  0.27381421  0.55749580  0.62459038     0.13000
H984        H  0.24328759  0.55497321  0.67656953     0.13000
N985        N  0.90847263  0.34311748  0.61032568    -0.03300
C986        C  0.89106060  0.31893701  0.61066845    -0.00700
C987        C  0.89114935  0.30702719  0.64486778    -0.23600
C988        C  0.90892008  0.32419944  0.66641292    -0.23800
C989        C  0.91907611  0.34607004  0.64474317    -0.00800
H990        H  0.87870000  0.28804485  0.65389759     0.13000
H991        H  0.91295014  0.32135263  0.69553177     0.13000
N992        N  0.89394102  0.57145939  0.58775804    -0.03300
C993        C  0.87141934  0.56894372  0.58729212    -0.00700
C994        C  0.86399173  0.56938896  0.62345876    -0.23600
C995        C  0.88212763  0.57203583  0.64727504    -0.23800
C996        C  0.90019493  0.57308470  0.62502588    -0.00800
H997        H  0.84706326  0.56798822  0.63157333     0.13000
H998        H  0.88180411  0.57238584  0.67779372     0.13000
N999        N  0.15884113  0.72582540  0.57708112    -0.03300
C1000       C  0.17227208  0.75069090  0.57307823    -0.00700
C1001       C  0.16840008  0.76037987  0.60411703    -0.23600
C1002       C  0.15250446  0.74120617  0.62824472    -0.23800
C1003       C  0.14706570  0.72042746  0.61117561    -0.00800
H1004       H  0.17799990  0.77938879  0.61029146     0.13000
H1005       H  0.14703514  0.74225966  0.65646288     0.13000
O1006       O  0.54309525  0.52445332  0.58013199    -0.79900
O1007       O  0.51057501  0.52481980  0.73921248    -0.80000
O1008       O  0.55131943  0.49023858  0.68051397    -0.80000
O1009       O  0.48962229  0.51921869  0.61567108    -0.79900
O1010       O  0.52566139  0.49514351  0.71374619    -0.80000
O1011       O  0.51705469  0.54704440  0.57533133    -0.80000
O1012       O  0.48711622  0.50937357  0.69193642    -0.79900
O1013       O  0.52282396  0.49587164  0.62634652    -0.80000
C1014       C  0.52865110  0.50216410  0.59145715     1.09700
C1015       C  0.48942887  0.51252848  0.72676845     1.09600
C1016       C  0.53556954  0.48246645  0.70696977     1.09800
C1017       C  0.49506080  0.53021274  0.58315560     1.09600
O1018       O  0.55353367  0.58568380  0.61885259    -0.79900
O1019       O  0.55383524  0.53226898  0.75590985    -0.80000
O1020       O  0.57395929  0.52718607  0.62826655    -0.80000
O1021       O  0.51462628  0.56181951  0.70116181    -0.79900
O1022       O  0.55180484  0.56834997  0.71219156    -0.80000
O1023       O  0.58235558  0.56466108  0.61858354    -0.80000
O1024       O  0.51411733  0.57107036  0.62519749    -0.79900
O1025       O  0.57409312  0.53620291  0.70332174    -0.80000
Co1026     Co  0.54870451  0.55490081  0.60197495     1.51500
Co1027     Co  0.54011769  0.53337948  0.70905964     1.51700
Co1028     Co  0.54617903  0.51595917  0.66445698     1.51600
Co1029     Co  0.50273392  0.53969604  0.65841427     1.51500
O1030       O  0.53361725  0.53849103  0.65418201    -1.41900
C1031       C  0.53544418  0.58855029  0.61530879     1.09700
C1032       C  0.57322677  0.53650361  0.73999140     1.09800
C1033       C  0.58890189  0.54914718  0.61739873     1.09700
C1034       C  0.53558851  0.57391858  0.71574786     1.09700
N1035       N  0.53428536  0.36611397  0.90494155    -0.03300
C1036       C  0.54318513  0.35070382  0.90782149    -0.00700
C1037       C  0.55108604  0.34974294  0.94431888    -0.23600
C1038       C  0.54692819  0.36457190  0.96456147    -0.23800
C1039       C  0.53661459  0.37441522  0.94022646    -0.00800
H1040       H  0.55772055  0.33817878  0.95594644     0.13000
H1041       H  0.52707969  0.36043212  0.51255594     0.13000
N1042       N  0.35608752  0.50756787  0.92114686    -0.03300
C1043       C  0.33204263  0.49900821  0.92809153    -0.00700
C1044       C  0.31840959  0.48866597  0.89674394    -0.23600
C1045       C  0.33432882  0.49069633  0.86948370    -0.23800
C1046       C  0.35727881  0.50215198  0.88500351    -0.00800
H1047       H  0.29899628  0.48110131  0.89368571     0.13000
H1048       H  0.32957360  0.48413586  0.84143530     0.13000
N1049       N  0.71687610  0.55829200  0.93626131    -0.03300
C1050       C  0.73644260  0.55520434  0.93666828    -0.00700
C1051       C  0.74320348  0.55434199  0.90025512    -0.23600
C1052       C  0.72756795  0.55698402  0.87638536    -0.23800
C1053       C  0.71163112  0.55936695  0.89888130    -0.00800
H1054       H  0.75847828  0.55273336  0.89193786     0.13000
H1055       H  0.72763434  0.55691849  0.84579752     0.13000
N1056       N  0.52193609  0.69316914  0.90605918    -0.03300
C1057       C  0.51189158  0.70747674  0.90539780    -0.00700
C1058       C  0.49646617  0.70260890  0.87497822    -0.23600
C1059       C  0.49763707  0.68557429  0.85553689    -0.23800
C1060       C  0.51333782  0.68020744  0.87499443    -0.00800
H1061       H  0.48771194  0.71258631  0.86517894     0.13000
H1062       H  0.48933824  0.67908505  0.82863190     0.13000
C1063       C  0.39938955  0.51837932  0.76279769    -0.17600
C1064       C  0.41632816  0.51730170  0.74004477    -0.19800
C1065       C  0.43331640  0.51196631  0.75646389     0.20800
C1066       C  0.43349556  0.50795163  0.79620445    -0.02700
C1067       C  0.41595679  0.50836303  0.81905617    -0.05800
C1068       C  0.39888259  0.51362255  0.80220407     0.21100
C1069       C  0.41511485  0.50291663  0.85857041     0.19300
C1070       C  0.43277180  0.49857796  0.87513625    -0.17300
C1071       C  0.45084368  0.49917676  0.85259410    -0.19500
C1072       C  0.45111475  0.50345242  0.81305232     0.20800
C1073       C  0.46884874  0.50368301  0.79002616    -0.32500
C1074       C  0.46854220  0.50749114  0.75042125     0.01500
C1075       C  0.45046771  0.51112560  0.73383440    -0.23900
C1076       C  0.38108713  0.51330103  0.82486358    -0.28400
C1077       C  0.37911390  0.50644258  0.86388564     0.07100
C1078       C  0.39614776  0.50110153  0.88052673    -0.27100
H1079       H  0.38636613  0.52244731  0.74950613     0.11900
H1080       H  0.41618380  0.52070395  0.70960077     0.13000
H1081       H  0.43257857  0.49469575  0.90551096     0.12100
H1082       H  0.46435452  0.49588942  0.86601241     0.11300
H1083       H  0.48312465  0.50135210  0.80282188     0.16700
H1084       H  0.45069815  0.51485189  0.70338116     0.12600
H1085       H  0.36801581  0.51739950  0.81178655     0.15500
H1086       H  0.39419872  0.49458037  0.91006807     0.15200
C1087       C  0.44285370  0.55604602  0.95084286    -0.17600
C1088       C  0.46231021  0.55619659  0.47289701    -0.19800
C1089       C  0.45878382  0.53992342  0.50434845     0.20800
C1090       C  0.43484482  0.52120414  0.51516790    -0.02700
C1091       C  0.41473230  0.51879712  0.49429245    -0.05800
C1092       C  0.41892267  0.53732836  0.96091159     0.21100
C1093       C  0.39087833  0.49976731  0.50484516     0.19300
C1094       C  0.38726505  0.48370857  0.53655569    -0.17300
C1095       C  0.40713594  0.48614256  0.55726334    -0.19500
C1096       C  0.43097185  0.50466616  0.54659162     0.20800
C1097       C  0.45093527  0.50701652  0.56710161    -0.32500
C1098       C  0.47489909  0.52585958  0.55711348     0.01500
C1099       C  0.47868780  0.54213059  0.52535151    -0.23900
C1100       C  0.39877538  0.53488527  0.94030823    -0.28400
C1101       C  0.37511969  0.51478516  0.94869780     0.07100
C1102       C  0.37118331  0.49636293  0.48246033    -0.27100
H1103       H  0.44614489  0.56951275  0.92772764     0.11900
H1104       H  0.48051814  0.57067988  0.46412795     0.13000
H1105       H  0.36907507  0.46900747  0.54500884     0.12100
H1106       H  0.40386883  0.47338987  0.58148269     0.11300
H1107       H  0.44768571  0.49444645  0.59160339     0.16700
H1108       H  0.49698535  0.55691622  0.51766613     0.12600
H1109       H  0.40164532  0.54731699  0.91580583     0.15500
H1110       H  0.35306408  0.48092472  0.48926100     0.15200
C1111       C  0.55516381  0.67171946  0.76856848    -0.17600
C1112       C  0.55816937  0.65668672  0.74531921    -0.19800
C1113       C  0.54823503  0.63185101  0.75634168     0.20800
C1114       C  0.53565056  0.62219582  0.79165793    -0.02700
C1115       C  0.53261774  0.63734389  0.81509102    -0.05800
C1116       C  0.54214869  0.66213396  0.80316451     0.21100
C1117       C  0.51905411  0.62742137  0.84956274     0.19300
C1118       C  0.50922655  0.60261675  0.86069800    -0.17300
C1119       C  0.51221439  0.58758747  0.83745387    -0.19500
C1120       C  0.52513089  0.59715828  0.80279041     0.20800
C1121       C  0.52681449  0.58192751  0.77830278    -0.32500
C1122       C  0.53870589  0.59132487  0.74287073     0.01500
C1123       C  0.54971355  0.61626486  0.73205340    -0.23900
C1124       C  0.53735445  0.67655514  0.82507223    -0.28400
C1125       C  0.52298193  0.66646031  0.85838508     0.07100
C1126       C  0.51443221  0.64216093  0.87118154    -0.27100
H1127       H  0.56253064  0.69072895  0.75907240     0.11900
H1128       H  0.56782162  0.66437090  0.71836130     0.13000
H1129       H  0.49872973  0.59471549  0.88694209     0.12100
H1130       H  0.50397448  0.56835004  0.84621330     0.11300
H1131       H  0.51791641  0.56247814  0.78602613     0.16700
H1132       H  0.55834648  0.62321828  0.70422354     0.12600
H1133       H  0.54360290  0.69531680  0.81517960     0.15500
H1134       H  0.50302138  0.63443585  0.89662284     0.15200
C1135       C  0.51078160  0.62207755  0.50582637    -0.17600
C1136       C  0.50114728  0.65172614  0.03286663    -0.19800
C1137       C  0.51758897  0.66210122  0.00186126     0.20800
C1138       C  0.55651432  0.66537727  0.50392077    -0.02700
C1139       C  0.54982479  0.64764886  0.53481859    -0.05800
C1140       C  0.52695993  0.62577846  0.53555837     0.21100
C1141       C  0.56651219  0.65134094  0.56404657     0.19300
C1142       C  0.58913966  0.67321240  0.56316960    -0.17300
C1143       C  0.59558051  0.69092856  0.53297619    -0.19500
C1144       C  0.57960582  0.68697660  0.50289635     0.20800
C1145       C  0.58682031  0.70373890  0.47104913    -0.32500
C1146       C  0.52957360  0.68475162  0.93964730     0.01500
C1147       C  0.51438644  0.67600090  0.97228187    -0.23900
C1148       C  0.52127354  0.60745405  0.56482787    -0.28400
C1149       C  0.53861190  0.61030275  0.59236165     0.07100
C1150       C  0.56086681  0.63258315  0.59243256    -0.27100
H1151       H  0.48994924  0.62809639  0.08392752     0.11900
H1152       H  0.48624293  0.65504811  0.03504294     0.13000
H1153       H  0.60211573  0.67639510  0.58543565     0.12100
H1154       H  0.61336915  0.70743574  0.53261172     0.11300
H1155       H  0.60494236  0.71984398  0.46957619     0.16700
H1156       H  0.49890152  0.67851762  0.97331005     0.12600
H1157       H  0.50419261  0.59020242  0.56432081     0.15500
H1158       H  0.57427903  0.63482065  0.61350586     0.15200
C1159       C  0.68058521  0.58722577  0.79169936    -0.17600
C1160       C  0.66140508  0.58278375  0.76746285    -0.19800
C1161       C  0.63737967  0.56463645  0.77778666     0.20800
C1162       C  0.63259318  0.55134803  0.81350148    -0.02700
C1163       C  0.65196711  0.55567192  0.83780337    -0.05800
C1164       C  0.67607972  0.57345347  0.82651107     0.21100
C1165       C  0.64731367  0.54151470  0.87262978     0.19300
C1166       C  0.62320164  0.52390739  0.88353041    -0.17300
C1167       C  0.60394751  0.51990969  0.85974950    -0.19500
C1168       C  0.60852463  0.53329495  0.82452852     0.20800
C1169       C  0.58946937  0.52875623  0.79996215    -0.32500
C1170       C  0.59410764  0.54158011  0.76412876     0.01500
C1171       C  0.61808842  0.55940936  0.75300687    -0.23900
C1172       C  0.69538087  0.57618302  0.84916506    -0.28400
C1173       C  0.69102035  0.56096475  0.88241824     0.07100
C1174       C  0.66692956  0.54426187  0.89479760    -0.27100
H1175       H  0.69904380  0.60100237  0.78274738     0.11900
H1176       H  0.66540835  0.59331536  0.74040864     0.13000
H1177       H  0.61926856  0.51292498  0.91013888     0.12100
H1178       H  0.58550345  0.50601849  0.86860061     0.11300
H1179       H  0.57092382  0.51490066  0.80849488     0.16700
H1180       H  0.62160766  0.56947443  0.72557643     0.12600
H1181       H  0.71400178  0.58908128  0.83965043     0.15500
H1182       H  0.66351232  0.53223372  0.92008154     0.15200
C1183       C  0.66513314  0.51971181  0.05112391    -0.17600
C1184       C  0.64760892  0.52438642  0.58728011    -0.19800
C1185       C  0.64005096  0.54145708  0.58283143     0.20800
C1186       C  0.65090028  0.56055077  0.55401453    -0.02700
C1187       C  0.66848378  0.56174918  0.52881520    -0.05800
C1188       C  0.67629873  0.53918287  0.02316976     0.21100
C1189       C  0.67838282  0.58008485  0.49874379     0.19300
C1190       C  0.67143462  0.59764048  0.49511285    -0.17300
C1191       C  0.65415440  0.59654068  0.52018576    -0.19500
C1192       C  0.64340020  0.57780266  0.54928707     0.20800
C1193       C  0.62442722  0.57527574  0.57239257    -0.32500
C1194       C  0.61246141  0.55536418  0.59955574     0.01500
C1195       C  0.62100269  0.53904508  0.60541528    -0.23900
C1196       C  0.69362118  0.54081914  0.99712335    -0.28400
C1197       C  0.70358282  0.55958456  0.96779162     0.07100
C1198       C  0.69427544  0.57996505  0.47197710    -0.27100
H1199       H  0.67032454  0.50604191  0.05394775     0.11900
H1200       H  0.63810250  0.50184268  0.09593368     0.13000
H1201       H  0.67895625  0.61192219  0.47230638     0.12100
H1202       H  0.64870606  0.60998544  0.51614661     0.11300
H1203       H  0.61790906  0.58783777  0.56746887     0.16700
H1204       H  0.61199645  0.52370144  0.62641098     0.12600
H1205       H  0.69820622  0.52670391  0.99813152     0.15500
H1206       H  0.70127205  0.59353157  0.44813514     0.15200
C1207       C  0.49302317  0.42236993  0.81650550    -0.17600
C1208       C  0.49232096  0.40505359  0.84389921    -0.19800
C1209       C  0.50858118  0.39661221  0.84146516     0.20800
C1210       C  0.52486271  0.40477507  0.81009927    -0.02700
C1211       C  0.52527896  0.42193118  0.78210584    -0.05800
C1212       C  0.50978295  0.43133206  0.78589204     0.21100
C1213       C  0.54206526  0.43056773  0.75138045     0.19300
C1214       C  0.55768248  0.42143440  0.74814041    -0.17300
C1215       C  0.55755198  0.40478881  0.77616188    -0.19500
C1216       C  0.54161553  0.39678638  0.80769241     0.20800
C1217       C  0.54323227  0.38225135  0.83795545    -0.32500
C1218       C  0.52829312  0.37551555  0.87061261     0.01500
C1219       C  0.50990074  0.38139430  0.87093830    -0.23900
C1220       C  0.51212886  0.45028136  0.76005625    -0.28400
C1221       C  0.52963772  0.45974321  0.73030310     0.07100
C1222       C  0.54384732  0.44906910  0.72546634    -0.27100
H1223       H  0.48085801  0.42920541  0.81979201     0.11900
H1224       H  0.47966917  0.39895576  0.86777616     0.13000
H1225       H  0.57061152  0.42781644  0.72458865     0.12100
H1226       H  0.57041357  0.39871630  0.77371201     0.11300
H1227       H  0.55734260  0.37770223  0.83731432     0.16700
H1228       H  0.49776313  0.37556304  0.89542192     0.12600
H1229       H  0.50105755  0.45829725  0.76402753     0.15500
H1230       H  0.55740533  0.45612904  0.70270260     0.15200
C1231       C  0.54530617  0.47673310  0.47383568    -0.17600
C1232       C  0.54450750  0.45820521  0.45415874    -0.19800
C1233       C  0.52909206  0.43364424  0.46689839     0.20800
C1234       C  0.51330856  0.42765300  0.49850263    -0.02700
C1235       C  0.51431339  0.44632973  0.51858364    -0.05800
C1236       C  0.53084023  0.47096140  0.50669974     0.21100
C1237       C  0.49996343  0.44033213  0.55195694     0.19300
C1238       C  0.48353699  0.41577546  0.56344993    -0.17300
C1239       C  0.48238856  0.39725138  0.54337257    -0.19500
C1240       C  0.49774813  0.40304403  0.51165687     0.20800
C1241       C  0.49903597  0.38476040  0.49452376    -0.32500
C1242       C  0.52871710  0.39067084  0.95413567     0.01500
C1243       C  0.53759268  0.41451959  0.93784895    -0.23900
C1244       C  0.53380770  0.48931318  0.52925097    -0.28400
C1245       C  0.52111254  0.48331303  0.56418090     0.07100
C1246       C  0.50343899  0.45889022  0.57453784    -0.27100
H1247       H  0.55798608  0.49559009  0.46425136     0.11900
H1248       H  0.55270026  0.46117686  0.91412236     0.13000
H1249       H  0.47223950  0.41088326  0.58878052     0.12100
H1250       H  0.47022575  0.37840663  0.55358792     0.11300
H1251       H  0.48798781  0.36592926  0.50576273     0.16700
H1252       H  0.54811920  0.42043157  0.91151386     0.12600
H1253       H  0.54736443  0.50814339  0.52089463     0.15500
H1254       H  0.49334958  0.45420098  0.60115200     0.15200
C1255       C  0.81116548  0.60643460  0.50715272    -0.17600
C1256       C  0.83281088  0.60825165  0.52029892    -0.19800
C1257       C  0.83416230  0.58721506  0.52853762     0.20800
C1258       C  0.81595224  0.55988203  0.01200989    -0.02700
C1259       C  0.79446013  0.55896524  0.99898891    -0.05800
C1260       C  0.79037049  0.58353006  0.50219691     0.21100
C1261       C  0.77245947  0.53628981  0.99794443     0.19300
C1262       C  0.77209223  0.51478534  0.01035316    -0.17300
C1263       C  0.79325186  0.51573805  0.02396886    -0.19500
C1264       C  0.81525292  0.53818406  0.02499637     0.20800
C1265       C  0.83611279  0.53947933  0.04108594    -0.32500
C1266       C  0.85607734  0.56766758  0.55478464     0.01500
C1267       C  0.85542159  0.58883732  0.54360067    -0.23900
C1268       C  0.77397544  0.57952417  0.97173676    -0.28400
C1269       C  0.75242271  0.55689648  0.96835369     0.07100
C1270       C  0.75158809  0.53542088  0.98263916    -0.27100
H1271       H  0.81075207  0.62299276  0.50058463     0.11900
H1272       H  0.84850212  0.62615224  0.52415405     0.13000
H1273       H  0.75541776  0.49720884  0.00955995     0.12100
H1274       H  0.79235622  0.49890341  0.03398209     0.11300
H1275       H  0.83489221  0.52308893  0.05442196     0.16700
H1276       H  0.87058572  0.60645966  0.55037682     0.12600
H1277       H  0.76903225  0.59801651  0.47673120     0.15500
H1278       H  0.73534939  0.51790744  0.97863866     0.15200
C1279       C  0.24591909  0.48507918  0.52036545    -0.17600
C1280       C  0.25994337  0.47713459  0.50340110    -0.19800
C1281       C  0.28431945  0.49376826  0.49230538     0.20800
C1282       C  0.28968312  0.51200806  0.00253016    -0.02700
C1283       C  0.27313817  0.51622961  0.02159089    -0.05800
C1284       C  0.25598460  0.50981555  0.52654683     0.21100
C1285       C  0.27854951  0.54034207  0.02465883     0.19300
C1286       C  0.30021354  0.55994324  0.00817116    -0.17300
C1287       C  0.31650084  0.55575410  0.98903079    -0.19500
C1288       C  0.31147477  0.53188857  0.98614289     0.20800
C1289       C  0.32727683  0.52750871  0.96568267    -0.32500
C1290       C  0.32119183  0.50352881  0.96058287     0.01500
C1291       C  0.29800358  0.48616350  0.47326444    -0.23900
C1292       C  0.24231738  0.51777430  0.54507775    -0.28400
C1293       C  0.25310962  0.54223666  0.55370944     0.07100
C1294       C  0.26285929  0.54447945  0.04583628    -0.27100
H1295       H  0.22719134  0.47183289  0.52877403     0.11900
H1296       H  0.25163304  0.45797406  0.49862634     0.13000
H1297       H  0.30466289  0.57856328  0.01032959     0.12100
H1298       H  0.33302706  0.57120776  0.97638756     0.11300
H1299       H  0.34318364  0.54263501  0.95099474     0.16700
H1300       H  0.28946805  0.46727602  0.46656683     0.12600
H1301       H  0.22407656  0.50456490  0.55583698     0.15500
H1302       H  0.26790930  0.56300066  0.05070516     0.15200
C1303       C  0.97453005  0.59122360  0.75069030    -0.17600
C1304       C  0.95895058  0.59581079  0.72809872    -0.19800
C1305       C  0.94972202  0.58389983  0.69467046     0.20800
C1306       C  0.95697346  0.56795105  0.68305336    -0.02700
C1307       C  0.97303052  0.56365795  0.70548855    -0.05800
C1308       C  0.98136026  0.57489475  0.73994739     0.21100
C1309       C  0.97994668  0.54736898  0.69419930     0.19300
C1310       C  0.97113966  0.53588122  0.66034134    -0.17300
C1311       C  0.95483354  0.53976738  0.63850718    -0.19500
C1312       C  0.94733402  0.55544364  0.64994910     0.20800
C1313       C  0.92951260  0.55792267  0.62991000    -0.32500
C1314       C  0.92177790  0.57336005  0.64183666     0.01500
C1315       C  0.93253244  0.58681755  0.67359788    -0.23900
C1316       C  0.99565133  0.56894176  0.76363425    -0.28400
C1317       C  0.00205469  0.55227535  0.75289689     0.07100
C1318       C  0.99476350  0.54211712  0.71769728    -0.27100
H1319       H  0.98088396  0.60011161  0.77690956     0.11900
H1320       H  0.95356185  0.60814481  0.73733833     0.13000
H1321       H  0.97633802  0.52336187  0.65128284     0.12100
H1322       H  0.94774637  0.53017375  0.61302719     0.11300
H1323       H  0.92083732  0.54687979  0.60627145     0.16700
H1324       H  0.92664838  0.59875797  0.68293668     0.12600
H1325       H  0.00144973  0.57693090  0.79065705     0.15500
H1326       H  0.99955847  0.52910418  0.70951018     0.15200
C1327       C  0.91056811  0.52755194  0.98162171    -0.17600
C1328       C  0.92713488  0.52371791  0.96246210    -0.19800
C1329       C  0.95236362  0.53883077  0.96713526     0.20800
C1330       C  0.96102559  0.55829768  0.99080614    -0.02700
C1331       C  0.94429436  0.56263554  0.00920166    -0.05800
C1332       C  0.91890629  0.54687189  0.00525571     0.21100
C1333       C  0.95295579  0.58231639  0.03238237     0.19300
C1334       C  0.97818486  0.59735760  0.03724740    -0.17300
C1335       C  0.99470748  0.59269611  0.01982058    -0.19500
C1336       C  0.98635699  0.57316605  0.99661705     0.20800
C1337       C  0.00280597  0.56816131  0.97925596    -0.32500
C1338       C  0.99424009  0.54908027  0.95502589     0.01500
C1339       C  0.96905475  0.53467422  0.94886533    -0.23900
C1340       C  0.90237289  0.54994581  0.02650334    -0.28400
C1341       C  0.91094370  0.56878604  0.05123812     0.07100
C1342       C  0.93622058  0.58581119  0.05194133    -0.27100
H1343       H  0.89119811  0.51525340  0.97819938     0.11900
H1344       H  0.92017897  0.50863572  0.94446124     0.13000
H1345       H  0.98512593  0.61242072  0.05527927     0.12100
H1346       H  0.01403546  0.60435505  0.02456544     0.11300
H1347       H  0.02221023  0.57932276  0.98395563     0.16700
H1348       H  0.96242979  0.51980105  0.93045190     0.12600
H1349       H  0.88301277  0.53672325  0.02586275     0.15500
H1350       H  0.94290804  0.60051238  0.07065746     0.15200
C1351       C  0.93925364  0.43641883  0.72443757    -0.17600
C1352       C  0.92773184  0.41808670  0.69922624    -0.19800
C1353       C  0.93814968  0.40445128  0.68991491     0.20800
C1354       C  0.96082722  0.40987275  0.70516607    -0.02700
C1355       C  0.97268674  0.42870376  0.73009551    -0.05800
C1356       C  0.96154495  0.44163575  0.74038478     0.21100
C1357       C  0.99543771  0.43428486  0.74522141     0.19300
C1358       C  0.00616796  0.42107123  0.73503187    -0.17300
C1359       C  0.99406784  0.40191965  0.71119916    -0.19500
C1360       C  0.97123690  0.39594534  0.69654377     0.20800
C1361       C  0.95812261  0.37570729  0.67479076    -0.32500
C1362       C  0.93517369  0.36982040  0.66069723     0.01500
C1363       C  0.92574046  0.38476899  0.66708579    -0.23900
C1364       C  0.97286345  0.45956459  0.76641995    -0.28400
C1365       C  0.99557011  0.46534580  0.78149571     0.07100
C1366       C  0.00694588  0.45287869  0.77035894    -0.27100
H1367       H  0.93061004  0.44638206  0.73173175     0.09500
H1368       H  0.91035959  0.41417267  0.68771937     0.13000
H1369       H  0.02369125  0.42520649  0.74614734     0.12100
H1370       H  0.00243530  0.39157478  0.70461249     0.11300
H1371       H  0.96531167  0.36406336  0.66983635     0.16700
H1372       H  0.90790520  0.37998584  0.65648655     0.12600
H1373       H  0.96436073  0.46961960  0.77401912     0.15500
H1374       H  0.02464764  0.45757204  0.78142699     0.15200
C1375       C  0.99431922  0.41715238  0.01641800    -0.17600
C1376       C  0.98375735  0.40119623  0.54106349    -0.19800
C1377       C  0.95518984  0.38967824  0.04875732     0.20800
C1378       C  0.94503941  0.40205913  0.02870408    -0.02700
C1379       C  0.95972947  0.42210441  0.00239296    -0.05800
C1380       C  0.98459956  0.42991947  0.99658415     0.21100
C1381       C  0.94964944  0.43460147  0.98249970     0.19300
C1382       C  0.92506142  0.42704000  0.98910603    -0.17300
C1383       C  0.91063342  0.40743158  0.01548262    -0.19500
C1384       C  0.92039872  0.39479116  0.03558391     0.20800
C1385       C  0.90624124  0.37550750  0.06310797    -0.32500
C1386       C  0.91995746  0.36071254  0.57822581     0.01500
C1387       C  0.94494546  0.37021149  0.57089740    -0.23900
C1388       C  0.99936929  0.45056380  0.97161538    -0.28400
C1389       C  0.98943108  0.46314892  0.95160972     0.07100
C1390       C  0.96441947  0.45472834  0.95693198    -0.27100
H1391       H  0.01328332  0.42273160  0.01229548     0.11900
H1392       H  0.99296691  0.39285925  0.55574248     0.13000
H1393       H  0.91703991  0.43650611  0.97417399     0.12100
H1394       H  0.89183988  0.40224883  0.02032541     0.11300
H1395       H  0.88769964  0.37055399  0.06959369     0.16700
H1396       H  0.95409522  0.36208105  0.58641951     0.12600
H1397       H  0.01854515  0.45685256  0.96779619     0.15500
H1398       H  0.95659189  0.46443063  0.94210160     0.15200
C1399       C  0.14454726  0.50606572  0.76370659    -0.17600
C1400       C  0.16347067  0.50868643  0.74092988    -0.19800
C1401       C  0.16946204  0.52249505  0.70597351     0.20800
C1402       C  0.15593238  0.53332093  0.69334103    -0.02700
C1403       C  0.13673602  0.53057339  0.71628056    -0.05800
C1404       C  0.13127275  0.51715877  0.75186154     0.21100
C1405       C  0.12353560  0.54185680  0.70415582     0.19300
C1406       C  0.12935843  0.55539803  0.66890316    -0.17300
C1407       C  0.14847764  0.55822048  0.64622603    -0.19500
C1408       C  0.16204123  0.54746802  0.65836932     0.20800
C1409       C  0.18199084  0.55113298  0.63669396    -0.32500
C1410       C  0.19563507  0.54052602  0.64939144     0.01500
C1411       C  0.18911052  0.52610421  0.68386770    -0.23900
C1412       C  0.11324509  0.51578755  0.77558117    -0.28400
C1413       C  0.10058685  0.52768460  0.76433811     0.07100
C1414       C  0.10537915  0.54013850  0.72810666    -0.27100
H1415       H  0.14054829  0.49567149  0.79090090     0.11900
H1416       H  0.17368502  0.50023354  0.75094073     0.13000
H1417       H  0.11940030  0.56418188  0.65915127     0.12100
H1418       H  0.15284423  0.56905109  0.61941909     0.11300
H1419       H  0.18736107  0.56290445  0.61082768     0.16700
H1420       H  0.19965031  0.51796572  0.69377264     0.12600
H1421       H  0.10963526  0.50611588  0.80337213     0.15500
H1422       H  0.09582501  0.54950772  0.71925792     0.15200
C1423       C  0.18103279  0.57246706  0.02199551    -0.17600
C1424       C  0.16195158  0.57287238  0.00256654    -0.19800
C1425       C  0.14049833  0.55100843  0.99530095     0.20800
C1426       C  0.13825383  0.52849199  0.00780513    -0.02700
C1427       C  0.15732711  0.52809877  0.02817257    -0.05800
C1428       C  0.17888269  0.55020748  0.03500391     0.21100
C1429       C  0.15467030  0.50562491  0.04220559     0.19300
C1430       C  0.13337931  0.48376252  0.03437166    -0.17300
C1431       C  0.11486223  0.48412852  0.01301017    -0.19500
C1432       C  0.11700971  0.50638079  0.99984636     0.20800
C1433       C  0.09851434  0.50694756  0.97837423    -0.32500
C1434       C  0.10061896  0.52932327  0.96608055     0.01500
C1435       C  0.12148644  0.55125709  0.97505741    -0.23900
C1436       C  0.20480076  0.56025134  0.54140210    -0.28400
C1437       C  0.20185806  0.53977512  0.56366859     0.07100
C1438       C  0.17299009  0.50551692  0.06481716    -0.27100
H1439       H  0.20473315  0.59752511  0.50125183     0.11900
H1440       H  0.16402989  0.59030873  0.99303546     0.13000
H1441       H  0.13103691  0.46634234  0.04477831     0.12100
H1442       H  0.09872003  0.46698411  0.00713656     0.11300
H1443       H  0.08265905  0.49005899  0.97071431     0.16700
H1444       H  0.12342821  0.56851493  0.96457331     0.12600
H1445       H  0.22226297  0.57717666  0.54093690     0.15500
H1446       H  0.17047264  0.48848235  0.07770688     0.15200
C1447       C  0.06799947  0.63557604  0.71450287    -0.17600
C1448       C  0.07689351  0.65409655  0.68508086    -0.19800
C1449       C  0.10120174  0.66537367  0.67218629     0.20800
C1450       C  0.11653861  0.65750957  0.68849648    -0.02700
C1451       C  0.10772833  0.63923302  0.71873494    -0.05800
C1452       C  0.08337724  0.62829418  0.73193712     0.21100
C1453       C  0.12339769  0.63213867  0.73602824     0.19300
C1454       C  0.14749704  0.64291440  0.72243771    -0.17300
C1455       C  0.15616877  0.66086365  0.69230198    -0.19500
C1456       C  0.14092479  0.66843627  0.67540102     0.20800
C1457       C  0.14996714  0.68751503  0.64685967    -0.32500
C1458       C  0.13524179  0.69637353  0.63233772     0.01500
C1459       C  0.11079081  0.68505473  0.64448918    -0.23900
C1460       C  0.07484101  0.61021925  0.76219925    -0.28400
C1461       C  0.09039357  0.60303748  0.77961592     0.07100
C1462       C  0.11469478  0.61426850  0.76642992    -0.27100
H1463       H  0.04918428  0.62720689  0.72402888     0.11900
H1464       H  0.06483260  0.65978856  0.67269685     0.13000
H1465       H  0.15970247  0.63755097  0.73527746     0.12100
H1466       H  0.17493862  0.66912559  0.68263702     0.11300
H1467       H  0.16898402  0.69671138  0.63792022     0.16700
H1468       H  0.09963259  0.69225568  0.63352298     0.12600
H1469       H  0.05597125  0.60143666  0.77169278     0.15500
H1470       H  0.12672849  0.60863258  0.77916235     0.15200
C1471       C  0.08455215  0.66077621  0.00226612    -0.17600
C1472       C  0.07413206  0.64205026  0.97750635    -0.19800
C1473       C  0.08874587  0.63556579  0.95842144     0.20800
C1474       C  0.11427049  0.64883093  0.96314094    -0.02700
C1475       C  0.12482365  0.66780624  0.98818906    -0.05800
C1476       C  0.10977861  0.67337978  0.00838402     0.21100
C1477       C  0.15025324  0.68052976  0.99411069     0.19300
C1478       C  0.16495398  0.67475066  0.97360254    -0.17300
C1479       C  0.15449703  0.65589110  0.94892452    -0.19500
C1480       C  0.12912084  0.64243903  0.94417583     0.20800
C1481       C  0.11823756  0.62199121  0.92238180    -0.32500
C1482       C  0.09264016  0.60770950  0.91943815     0.01500
C1483       C  0.07814359  0.61529695  0.93631513    -0.23900
C1484       C  0.12005913  0.69090197  0.03523392    -0.28400
C1485       C  0.14522673  0.70300163  0.04274693     0.07100
C1486       C  0.16034714  0.69816354  0.02126520    -0.27100
H1487       H  0.07277016  0.66499130  0.01738137     0.11900
H1488       H  0.05453905  0.63217711  0.97411429     0.13000
H1489       H  0.18450406  0.68440214  0.97738029     0.12100
H1490       H  0.16622766  0.65138832  0.93431719     0.11300
H1491       H  0.12965601  0.61651560  0.90922210     0.16700
H1492       H  0.05847302  0.60459176  0.93415515     0.12600
H1493       H  0.10833817  0.69488289  0.05103811     0.15500
H1494       H  0.17967851  0.70735552  0.02658561     0.15200
C1495       C  0.80791176  0.29888656  0.05575387    -0.17600
C1496       C  0.78623780  0.28082141  0.04029470    -0.19800
C1497       C  0.78353582  0.25849230  0.03176567     0.20800
C1498       C  0.80607295  0.25285722  0.53377628    -0.02700
C1499       C  0.82779031  0.27081960  0.55026472    -0.05800
C1500       C  0.82728855  0.28791364  0.57258085     0.21100
C1501       C  0.85000374  0.27166800  0.54433142     0.19300
C1502       C  0.85023082  0.25434276  0.52256147    -0.17300
C1503       C  0.82883616  0.23670185  0.50614524    -0.19500
C1504       C  0.80674868  0.23596447  0.51125540     0.20800
C1505       C  0.78572319  0.21954644  0.49239892    -0.32500
C1506       C  0.76075834  0.21938952  0.00264695     0.01500
C1507       C  0.76267057  0.24106204  0.01330334    -0.23900
C1508       C  0.84897679  0.30561618  0.58900493    -0.28400
C1509       C  0.87116557  0.30643876  0.58348601     0.07100
C1510       C  0.87145868  0.28938052  0.56104789    -0.27100
H1511       H  0.80942010  0.31589120  0.06205694     0.11900
H1512       H  0.77166977  0.28445706  0.03455599     0.13000
H1513       H  0.86702923  0.25455158  0.51795337     0.12100
H1514       H  0.82966059  0.22385485  0.48887481     0.11300
H1515       H  0.78682308  0.20772671  0.47311745     0.16700
H1516       H  0.74899831  0.24538366  0.00398762     0.12600
H1517       H  0.84837020  0.31789178  0.60787123     0.15500
H1518       H  0.88817607  0.28913566  0.55825934     0.15200
C1519       C  0.47606071  0.25390495  0.84126790    -0.17600
C1520       C  0.48595141  0.27913605  0.84143813    -0.19800
C1521       C  0.50939720  0.29412540  0.85531140     0.20800
C1522       C  0.52388125  0.28386546  0.86547318    -0.02700
C1523       C  0.51373632  0.25833376  0.86604258    -0.05800
C1524       C  0.48934129  0.24323528  0.85544094     0.21100
C1525       C  0.52713146  0.24777197  0.88097110     0.19300
C1526       C  0.55132114  0.26298792  0.89176521    -0.17300
C1527       C  0.56154409  0.28829529  0.89041311    -0.19500
C1528       C  0.54759372  0.29873996  0.87886012     0.20800
C1529       C  0.55586972  0.32316603  0.88467954    -0.32500
C1530       C  0.53986544  0.33218032  0.88133260     0.01500
C1531       C  0.51746415  0.31832672  0.86343971    -0.23900
C1532       C  0.47786715  0.21785211  0.86311197    -0.28400
C1533       C  0.49022849  0.20752367  0.88242331     0.07100
C1534       C  0.51534170  0.22232283  0.88857185    -0.27100
H1535       H  0.45741129  0.24257413  0.83248083     0.11900
H1536       H  0.47470639  0.28669494  0.83284803     0.13000
H1537       H  0.56192051  0.25524302  0.90310378     0.12100
H1538       H  0.57981323  0.29951726  0.90078756     0.11300
H1539       H  0.57349948  0.33403585  0.89738458     0.16700
H1540       H  0.50504079  0.32506439  0.86035645     0.12600
H1541       H  0.45851712  0.20642900  0.85817529     0.15500
H1542       H  0.52492807  0.21449569  0.90360632     0.15200
C1543       C  0.65632652  0.09818315  0.56401280    -0.17600
C1544       C  0.67600677  0.11344150  0.53903877    -0.19800
C1545       C  0.68232724  0.13769097  0.52947375     0.20800
C1546       C  0.66869517  0.14665154  0.54542803    -0.02700
C1547       C  0.64875843  0.13120405  0.57050596    -0.05800
C1548       C  0.64248393  0.10681845  0.57986537     0.21100
C1549       C  0.63490498  0.14010044  0.58574259     0.19300
C1550       C  0.64092754  0.16420023  0.57573319    -0.17300
C1551       C  0.66060059  0.17945228  0.55096126    -0.19500
C1552       C  0.67465107  0.17091055  0.53572712     0.20800
C1553       C  0.69410652  0.18598344  0.51018049    -0.32500
C1554       C  0.70749441  0.17708691  0.49375593     0.01500
C1555       C  0.70156078  0.15294715  0.50350906    -0.23900
C1556       C  0.62229415  0.09146265  0.60436549    -0.28400
C1557       C  0.60833004  0.10024098  0.61972231     0.07100
C1558       C  0.61502656  0.12470818  0.61027881    -0.27100
H1559       H  0.65181991  0.07953739  0.57071129     0.11900
H1560       H  0.68620554  0.10620782  0.52700224     0.13000
H1561       H  0.63033565  0.17125018  0.58697420     0.12100
H1562       H  0.66475519  0.19792312  0.54356777     0.11300
H1563       H  0.69821273  0.20431699  0.50160460     0.16700
H1564       H  0.71146950  0.14592531  0.48989024     0.12600
H1565       H  0.61726664  0.07264799  0.61099562     0.15500
H1566       H  0.60438819  0.13175914  0.62136423     0.15200
C1567       C  0.64016803  0.15847603  0.87508024    -0.17600
C1568       C  0.62311355  0.14697564  0.84685273    -0.19800
C1569       C  0.62582849  0.13213496  0.82247224     0.20800
C1570       C  0.64574169  0.12854611  0.82705859    -0.02700
C1571       C  0.66303130  0.14025274  0.85546235    -0.05800
C1572       C  0.66032279  0.15542374  0.87947144     0.21100
C1573       C  0.68335018  0.13725868  0.85916096     0.19300
C1574       C  0.68582270  0.12204953  0.83532382    -0.17300
C1575       C  0.66847051  0.11009113  0.80776566    -0.19500
C1576       C  0.64847077  0.11335647  0.80315939     0.20800
C1577       C  0.63104982  0.10149191  0.77536865    -0.32500
C1578       C  0.61111766  0.10494157  0.77050451     0.01500
C1579       C  0.60883001  0.12056207  0.79397259    -0.23900
C1580       C  0.67833617  0.16805140  0.90625378    -0.28400
C1581       C  0.69921747  0.16607516  0.90864393     0.07100
C1582       C  0.70134383  0.15030088  0.88551699    -0.27100
H1583       H  0.63775682  0.17003687  0.89317232     0.11900
H1584       H  0.60781721  0.14977087  0.84400151     0.13000
H1585       H  0.70130407  0.11953438  0.83780572     0.12100
H1586       H  0.67083315  0.09845593  0.78977158     0.11300
H1587       H  0.63280292  0.08928156  0.75781152     0.16700
H1588       H  0.59321538  0.12286636  0.79117799     0.12600
H1589       H  0.67697763  0.18068113  0.92335683     0.15500
H1590       H  0.71766648  0.14913989  0.88683545     0.15200
C1591       C  0.49936379  0.09971502  0.46700573    -0.17600
C1592       C  0.50684827  0.08777341  0.49369882    -0.19800
C1593       C  0.50905417  0.09293777  0.53197612     0.20800
C1594       C  0.50416123  0.11068171  0.54332191    -0.02700
C1595       C  0.49724513  0.12316629  0.51624707    -0.05800
C1596       C  0.49442151  0.11735899  0.47802219     0.21100
C1597       C  0.49303632  0.14136788  0.52749565     0.19300
C1598       C  0.49542006  0.14672935  0.56563897    -0.17300
C1599       C  0.50175987  0.13399706  0.59260039    -0.19500
C1600       C  0.50612198  0.11593715  0.58174243     0.20800
C1601       C  0.51245153  0.10308689  0.60864316    -0.32500
C1602       C  0.51744023  0.08544667  0.59760204     0.01500
C1603       C  0.51597636  0.08064781  0.55914420    -0.23900
C1604       C  0.47476837  0.11855055  0.96206954    -0.28400
C1605       C  0.48398130  0.14847965  0.46221392     0.07100
C1606       C  0.48674065  0.15406680  0.50035013    -0.27100
H1607       H  0.47959419  0.08062721  0.94678351     0.11900
H1608       H  0.51066216  0.07429832  0.48446951     0.13000
H1609       H  0.49225324  0.16068431  0.57465326     0.12100
H1610       H  0.50332475  0.13832900  0.62194749     0.11300
H1611       H  0.51400288  0.10719206  0.63812500     0.16700
H1612       H  0.51996152  0.06716286  0.55046542     0.12600
H1613       H  0.47043590  0.11358594  0.93309767     0.15500
H1614       H  0.48423650  0.16857170  0.50882106     0.15200
C1615       C  0.54257919  0.12099356  0.88180067    -0.17600
C1616       C  0.53760152  0.13662240  0.90039232    -0.19800
C1617       C  0.52010269  0.14205091  0.88633263     0.20800
C1618       C  0.50752745  0.13159003  0.85321111    -0.02700
C1619       C  0.51213754  0.11544415  0.83502308    -0.05800
C1620       C  0.52988240  0.11020378  0.84913713     0.21100
C1621       C  0.49892011  0.10454514  0.80265388     0.19300
C1622       C  0.48153899  0.10998279  0.78836395    -0.17300
C1623       C  0.47713371  0.12608599  0.80613375    -0.19500
C1624       C  0.48986830  0.13679615  0.83866073     0.20800
C1625       C  0.48421423  0.15154076  0.85797993    -0.32500
C1626       C  0.49522369  0.16050900  0.89239930     0.01500
C1627       C  0.51400026  0.15671091  0.90565834    -0.23900
C1628       C  0.53494841  0.09479401  0.82971721    -0.28400
C1629       C  0.52223509  0.08451895  0.79667915     0.07100
C1630       C  0.50369117  0.08887121  0.78433538    -0.27100
H1631       H  0.55628166  0.11725480  0.89308220     0.11900
H1632       H  0.54734322  0.14435560  0.92589892     0.13000
H1633       H  0.47138482  0.10182025  0.76334562     0.12100
H1634       H  0.46347139  0.12986584  0.79477354     0.11300
H1635       H  0.46960330  0.15429260  0.84808345     0.16700
H1636       H  0.52240629  0.16358345  0.93238554     0.12600
H1637       H  0.54939193  0.09169533  0.83928634     0.15500
H1638       H  0.49362386  0.08092953  0.75911455     0.15200
C1639       C  0.25172446  0.84204681  0.00034583    -0.17600
C1640       C  0.22751319  0.82295471  0.00566331    -0.19800
C1641       C  0.22212979  0.79974351  0.02038154     0.20800
C1642       C  0.24246021  0.80430723  0.53105631    -0.02700
C1643       C  0.26584939  0.81496342  0.02410118    -0.05800
C1644       C  0.27103525  0.83825901  0.00937941     0.21100
C1645       C  0.28612739  0.81932930  0.52677903     0.19300
C1646       C  0.28112446  0.79546651  0.53579929    -0.17300
C1647       C  0.25713319  0.77626851  0.54332753    -0.19500
C1648       C  0.23764376  0.78046725  0.54094674     0.20800
C1649       C  0.21362938  0.76161301  0.55038012    -0.32500
C1650       C  0.19431791  0.76616405  0.54880725     0.01500
C1651       C  0.19789756  0.78096586  0.02777407    -0.23900
C1652       C  0.29533453  0.85689328  0.00146712    -0.28400
C1653       C  0.31447358  0.85221333  0.00587291     0.07100
C1654       C  0.30987816  0.83843387  0.51680602    -0.27100
H1655       H  0.25534599  0.85973367  0.98867236     0.11900
H1656       H  0.21296766  0.82641325  0.99854438     0.13000
H1657       H  0.29577426  0.79164376  0.53701205     0.12100
H1658       H  0.25380743  0.75810079  0.55087056     0.11300
H1659       H  0.21046168  0.74419926  0.56254696     0.16700
H1660       H  0.18328462  0.78466809  0.02289811     0.12600
H1661       H  0.29902523  0.87402667  0.98706556     0.15500
H1662       H  0.32429728  0.83447527  0.51374866     0.15200
C1663       C  0.41558378  0.91606525  0.61442289    -0.17600
C1664       C  0.39648519  0.90233296  0.59021020    -0.19800
C1665       C  0.38990592  0.91395048  0.56131663     0.20800
C1666       C  0.40239172  0.93973018  0.55749744    -0.02700
C1667       C  0.42199062  0.95363508  0.58159747    -0.05800
C1668       C  0.42866608  0.94169584  0.60997959     0.21100
C1669       C  0.43531644  0.97941801  0.57657162     0.19300
C1670       C  0.42825724  0.99100908  0.54834291    -0.17300
C1671       C  0.40864843  0.97726290  0.52485604    -0.19500
C1672       C  0.39583266  0.95162323  0.52882101     0.20800
C1673       C  0.37735174  0.93771547  0.50354936    -0.32500
C1674       C  0.36611572  0.91207048  0.50519052     0.01500
C1675       C  0.37189790  0.90030540  0.53514071    -0.23900
C1676       C  0.44867523  0.95551364  0.63281821    -0.28400
C1677       C  0.46268719  0.98123852  0.62737393     0.07100
C1678       C  0.45571933  0.99307002  0.59924993    -0.27100
H1679       H  0.42046438  0.90660240  0.63616292     0.11900
H1680       H  0.38711019  0.88259391  0.59371311     0.13000
H1681       H  0.43811273  0.01073909  0.54408161     0.12100
H1682       H  0.40840158  0.97789424  0.99599305     0.11300
H1683       H  0.37566995  0.93766921  0.97742261     0.16700
H1684       H  0.36347375  0.88063895  0.53664981     0.12600
H1685       H  0.45383614  0.94604942  0.65413591     0.15500
H1686       H  0.46625860  0.01279787  0.59478537     0.15200
C1687       C  0.40980835  0.96673556  0.79968730    -0.17600
C1688       C  0.39053882  0.95048247  0.82449684    -0.19800
C1689       C  0.39521379  0.94307351  0.86042796     0.20800
C1690       C  0.41947461  0.95278680  0.87208114    -0.02700
C1691       C  0.43891292  0.96940602  0.84719782    -0.05800
C1692       C  0.43408064  0.97601002  0.81049267     0.21100
C1693       C  0.46316653  0.97857400  0.85848964     0.19300
C1694       C  0.46782329  0.97164393  0.89478807    -0.17300
C1695       C  0.44858643  0.95489928  0.91917850    -0.19500
C1696       C  0.42436295  0.94499514  0.90784897     0.20800
C1697       C  0.40505390  0.92654048  0.93074190    -0.32500
C1698       C  0.38089399  0.91631796  0.91878351     0.01500
C1699       C  0.37611658  0.92521311  0.88410818    -0.23900
C1700       C  0.45355240  0.99093497  0.78480175    -0.28400
C1701       C  0.47778631  0.99934310  0.79542158     0.07100
C1702       C  0.48236434  0.99366861  0.83278402    -0.27100
H1703       H  0.40571548  0.97164957  0.77173913     0.11900
H1704       H  0.37197086  0.94317326  0.81516192     0.13000
H1705       H  0.48638807  0.97862977  0.90390617     0.12100
H1706       H  0.45267757  0.94928929  0.94659784     0.11300
H1707       H  0.40890635  0.91925201  0.95679752     0.16700
H1708       H  0.35748527  0.91713421  0.87459662     0.12600
H1709       H  0.44978565  0.99521991  0.75619694     0.15500
H1710       H  0.50091912  0.00007211  0.84148405     0.15200
C1711       C  0.51439116  0.80222035  0.93189764    -0.17600
C1712       C  0.50415774  0.77688491  0.93335504    -0.19800
C1713       C  0.51891561  0.76691136  0.92859247     0.20800
C1714       C  0.54423654  0.78260478  0.92234423    -0.02700
C1715       C  0.55451245  0.80817528  0.92035335    -0.05800
C1716       C  0.53954395  0.81804943  0.92535379     0.21100
C1717       C  0.57980863  0.82383529  0.91379746     0.19300
C1718       C  0.59456667  0.81388399  0.90901225    -0.17300
C1719       C  0.58437335  0.78858141  0.91074742    -0.19500
C1720       C  0.55924529  0.77277226  0.91738455     0.20800
C1721       C  0.54871601  0.74738495  0.91717893    -0.32500
C1722       C  0.52331130  0.73176116  0.92082748     0.01500
C1723       C  0.50865644  0.74159488  0.92806691    -0.23900
C1724       C  0.55014933  0.84349721  0.92535459    -0.28400
C1725       C  0.57555460  0.85908673  0.92096654     0.07100
C1726       C  0.59008129  0.84914011  0.91374851    -0.27100
H1727       H  0.50262588  0.80943300  0.93596003     0.11900
H1728       H  0.48465593  0.76508089  0.93801489     0.13000
H1729       H  0.61404767  0.82568929  0.90409788     0.12100
H1730       H  0.59614062  0.78137308  0.90664347     0.11300
H1731       H  0.56002851  0.74000589  0.91066796     0.16700
H1732       H  0.48901857  0.72962207  0.93033928     0.12600
H1733       H  0.53891566  0.85098402  0.93170694     0.15500
H1734       H  0.60969026  0.86109079  0.91061066     0.15200
C1735       C  0.49236079  0.90895618  0.54941439    -0.17600
C1736       C  0.49349101  0.92672629  0.57138543    -0.19800
C1737       C  0.51538933  0.94907711  0.57362073     0.20800
C1738       C  0.53607873  0.95408250  0.55222783    -0.02700
C1739       C  0.53495556  0.93612828  0.53016401    -0.05800
C1740       C  0.51311648  0.91330368  0.52943857     0.21100
C1741       C  0.55596835  0.94059130  0.51028453     0.19300
C1742       C  0.57756789  0.96336454  0.51130032    -0.17300
C1743       C  0.57855472  0.98137680  0.53263851    -0.19500
C1744       C  0.55805513  0.97676849  0.55368879     0.20800
C1745       C  0.55914908  0.99427928  0.57652099    -0.32500
C1746       C  0.53885119  0.98887681  0.59881956     0.01500
C1747       C  0.51704261  0.96642384  0.59717187    -0.23900
C1748       C  0.51281628  0.89475427  0.51057701    -0.28400
C1749       C  0.53407344  0.89861281  0.49288968     0.07100
C1750       C  0.55536436  0.92173164  0.49162202    -0.27100
H1751       H  0.47544110  0.89156196  0.54887695     0.11900
H1752       H  0.47737947  0.92281358  0.58721756     0.13000
H1753       H  0.59382443  0.96708734  0.49614019     0.12100
H1754       H  0.59551119  0.99872083  0.53334572     0.11300
H1755       H  0.57575750  0.01194275  0.57734820     0.16700
H1756       H  0.50119707  0.96274356  0.61357488     0.12600
H1757       H  0.54363755  0.89893752  0.98520697     0.15500
H1758       H  0.57191969  0.92445036  0.47886189     0.15200
C1759       C  0.59444740  0.96279955  0.78648635    -0.17600
C1760       C  0.59890100  0.94819610  0.81282606    -0.19800
C1761       C  0.58110582  0.93251178  0.84030302     0.20800
C1762       C  0.55820648  0.93074619  0.84025639    -0.02700
C1763       C  0.55357637  0.94524127  0.81326149    -0.05800
C1764       C  0.57202766  0.96182460  0.78689997     0.21100
C1765       C  0.53088770  0.94392327  0.81377493     0.19300
C1766       C  0.51291944  0.92786704  0.84077860    -0.17300
C1767       C  0.51766161  0.91384406  0.86790549    -0.19500
C1768       C  0.54036623  0.91539666  0.86829266     0.20800
C1769       C  0.54600949  0.90290204  0.89728489    -0.32500
C1770       C  0.56920792  0.90553137  0.89845636     0.01500
C1771       C  0.58629812  0.91965005  0.86908916    -0.23900
C1772       C  0.56808986  0.97780600  0.76254452    -0.28400
C1773       C  0.54571677  0.97698172  0.76357587     0.07100
C1774       C  0.52695218  0.95944612  0.78843356    -0.27100
H1775       H  0.60875225  0.97525572  0.76630748     0.11900
H1776       H  0.61656936  0.94972560  0.81243068     0.13000
H1777       H  0.49540525  0.92665827  0.84160234     0.12100
H1778       H  0.50373041  0.90215942  0.88910241     0.11300
H1779       H  0.53285429  0.89210963  0.91989230     0.16700
H1780       H  0.60433436  0.92202335  0.87042163     0.12600
H1781       H  0.58258129  0.99125949  0.74343879     0.15500
H1782       H  0.50976843  0.95892990  0.78971934     0.15200
loop_ 
_geom_bond_atom_site_label_1 
_geom_bond_atom_site_label_2 
_geom_bond_distance 
_geom_bond_site_symmetry_2 
_ccdc_geom_bond_type 
N1            C2   1.362       .  A
N1          C896   1.358       .  A
N1          C879   1.444       .  S
C2          C834   1.472       .  S
C2          C894   1.383       .  A
C3            C4   1.367       .  A
C3          C893   1.386       .  A
C3            H6   1.082       .  S
C4            C5   1.378       .  A
C4            H7   1.082   1_556  S
C5          N892   1.357       .  A
C5          C858   1.472       .  S
N8           C12   1.362       .  A
N8            C9   1.362       .  A
N8         C1674   1.453       .  S
C9          C762   1.466       .  S
C9           C10   1.382       .  A
C10          C11   1.361       .  A
C10          H13   1.083       .  S
C11          C12   1.379       .  A
C11          H14   1.083       .  S
C12         C807   1.468       .  S
O15          C23   1.267   1_545  A
O15         Co35   1.998       .  S
O16          C24   1.273       .  A
O16         Co36   1.985       .  S
O17          C25   1.301   1_565  A
O17         Co37   2.119   1_565  S
O18          C26   1.277       .  A
O18         Co38   2.042       .  S
O19          C25   1.263       .  A
O19         Co36   1.871       .  S
O20          C26   1.262       .  A
O20         Co35   1.962       .  S
O21          C24   1.279       .  A
O21         Co38   2.025       .  S
O22          C23   1.268       .  A
O22         Co37   2.010   1_565  S
C23         C882   1.500       .  S
C24         C666   1.493       .  S
C25         C855   1.462   1_545  S
C26         C687   1.489       .  S
O27          C40   1.276       .  A
O27         Co35   2.065       .  S
O28          C41   1.302   1_545  A
O28         Co36   2.139       .  S
O29          C42   1.271       .  A
O29         Co37   1.980       .  S
O30          C43   1.254       .  A
O30         Co38   1.970       .  S
O31          C43   1.259       .  A
O31         Co36   2.002       .  S
O32          C42   1.271       .  A
O32         Co35   1.986       .  S
O33          C40   1.255       .  A
O33         Co38   1.948       .  S
O34          C41   1.264       .  A
O34         Co37   1.900   1_565  S
Co35         O39   2.061       .  S
Co36         O39   2.023       .  S
Co37         O39   2.005       .  S
Co38         O39   2.023       .  S
C40         C738   1.493       .  S
C41         C786   1.504       .  S
C42         C810   1.468   1_545  S
C43         C711   1.474       .  S
N44          C48   1.362       .  A
N44          C45   1.361       .  A
N44         C735   1.445       .  S
C45         C642   1.482       .  S
C45          C46   1.385       .  A
C46         C938   1.368       .  A
C46          H49   1.083       .  S
C47         C937   1.372       .  A
C47         C939   1.381       .  A
C47          H50   1.082       .  S
C48        C1605   1.480       .  S
C48         C938   1.380       .  A
N51          C55   1.360       .  A
N51          C52   1.366       .  A
N51        C1554   1.439       .  S
C52         C615   1.490       .  S
C52          C53   1.385       .  A
C53          C54   1.371       .  A
C53          H56   1.083       .  S
C54          C55   1.378       .  A
C54          H57   1.082       .  S
C55         C690   1.481       .  S
O58          C66   1.264       .  A
O58         Co78   1.999       .  S
O59          C67   1.266       .  A
O59         Co79   1.889       .  S
O60          C68   1.268       .  A
O60         Co80   2.019       .  S
O61          C69   1.299       .  A
O61         Co81   2.077       .  S
O62          C68   1.255       .  A
O62         Co79   1.986       .  S
O63          C69   1.277       .  A
O63         Co78   1.910       .  S
O64          C67   1.299       .  A
O64         Co81   2.079       .  S
O65          C66   1.265       .  A
O65         Co80   2.010       .  S
C66         C591   1.493       .  S
C67         C426   1.469       .  S
C68         C570   1.481       .  S
C69         C447   1.483   1_455  S
O70          C83   1.254       .  A
O70         Co78   1.984       .  S
O71          C84   1.264       .  A
O71         Co79   2.002       .  S
O72          C85   1.263       .  A
O72         Co80   1.971       .  S
O73          C86   1.258   1_655  A
O73         Co81   2.011   1_655  S
O74          C86   1.245       .  A
O74         Co79   1.974       .  S
O75          C85   1.279       .  A
O75         Co78   2.042       .  S
O76          C83   1.256   1_655  A
O76         Co81   1.998   1_655  S
O77          C84   1.264       .  A
O77         Co80   1.983       .  S
Co78         O82   1.946       .  S
Co79         O82   1.916       .  S
Co80         O82   2.094       .  S
Co81         O82   2.257       .  S
C83         C498   1.489   1_455  S
C84         C522   1.477       .  S
C85         C543   1.478       .  S
C86         C474   1.482   1_455  S
N87          C91   1.360       .  A
N87          C88   1.358       .  A
N87         C546   1.439       .  S
C88         C402   1.472       .  S
C88          C89   1.380       .  A
C89          C90   1.370       .  A
C89          H92   1.082       .  S
C90          C91   1.383       .  A
C90          H93   1.082       .  S
C91         C519   1.483       .  S
N94          C98   1.363       .  A
N94          C95   1.368       .  A
N94         C495   1.447       .  S
C95         C618   1.488       .  S
C95          C96   1.384       .  A
C96          C97   1.369       .  A
C96          H99   1.083       .  S
C97          C98   1.378       .  A
C97         H100   1.082       .  S
C98         C471   1.481       .  S
N101        C105   1.365       .  A
N101        C102   1.364       .  A
N101       C1341   1.450       .  S
C102        C375   1.473       .  S
C102        C103   1.381       .  A
C103        C104   1.365       .  A
C103        H106   1.083       .  S
C104        C105   1.381       .  A
C104        H107   1.082       .  S
C105        C423   1.481       .  S
N108        C112   1.362       .  A
N108        C109   1.363       .  A
N108       C1485   1.451       .  S
C109        C759   1.482       .  S
C109        C110   1.384       .  A
C110        C111   1.366       .  A
C110        H113   1.083       .  S
C111        C112   1.377       .  A
C111        H114   1.082       .  S
C112        C567   1.474       .  S
O115        C123   1.274       .  A
O115       Co135   2.012       .  S
O116        C124   1.255       .  A
O116       Co136   1.998       .  S
O117        C125   1.265       .  A
O117       Co137   1.893       .  S
O118        C126   1.261       .  A
O118       Co138   1.962       .  S
O119        C125   1.297       .  A
O119       Co136   2.106       .  S
O120        C126   1.276       .  A
O120       Co135   2.043       .  S
O121        C124   1.256       .  A
O121       Co138   1.977       .  S
O122        C123   1.272       .  A
O122       Co137   1.987       .  S
C123        C354   1.490       .  S
C124        C183   1.478       .  S
C125        C330   1.486       .  S
C126        C207   1.489       .  S
O127        C140   1.266       .  A
O127       Co135   1.978       .  S
O128        C141   1.257       .  A
O128       Co136   1.883       .  S
O129        C142   1.265       .  A
O129       Co137   2.003       .  S
O130        C143   1.280       .  A
O130       Co138   2.034       .  S
O131        C143   1.269       .  A
O131       Co136   1.965       .  S
O132        C142   1.267       .  A
O132       Co135   1.995       .  S
O133        C140   1.273       .  A
O133       Co138   2.020       .  S
O134        C141   1.304       .  A
O134       Co137   2.138       .  S
Co135       O139   2.067       .  S
Co136       O139   2.024       .  S
Co137       O139   2.020       .  S
Co138       O139   2.041       .  S
C140        C258   1.492       .  S
C141        C279   1.484       .  S
C142        C303   1.494       .  S
C143        C231   1.485       .  S
N144        C148   1.363       .  A
N144        C145   1.363       .  A
N144        C327   1.448       .  S
C145        C639   1.482       .  S
C145        C146   1.385       .  A
C146        C147   1.366       .  A
C146        H149   1.082       .  S
C147        C148   1.379       .  A
C147       H1041   1.083       .  S
C148        C351   1.476       .  S
H150       C1038   1.083       .  S
N151        C155   1.365       .  A
N151        C152   1.364       .  A
N151        C210   1.441       .  S
C152        C399   1.487       .  S
C152        C153   1.382       .  A
C153        C154   1.367       .  A
C153        H156   1.082       .  S
C154        C155   1.383       .  A
C154        H157   1.082       .  S
C155        C186   1.491       .  S
N158        C162   1.367       .  A
N158        C159   1.367       .  A
N158        C306   1.446       .  S
C159        C378   1.480       .  S
C159        C160   1.378       .  A
C160        C161   1.363       .  A
C160        H163   1.083       .  S
C161        C162   1.384       .  A
C161        H164   1.082       .  S
C162        C282   1.492       .  S
N165        C169   1.359       .  A
N165        C166   1.363       .  A
N165        C255   1.445       .  S
C166        C831   1.483       .  S
C166        C167   1.384       .  A
C167        C168   1.367       .  A
C167        H170   1.082       .  S
C168        C169   1.379       .  A
C168        H171   1.082       .  S
C169        C234   1.475       .  S
C172        C173   1.396       .  A
C172        C177   1.403       .  A
C172        H188   1.084       .  S
C173        C174   1.402       .  A
C173        H189   1.084       .  S
C174        C184   1.400       .  A
C174        C175   1.412       .  A
C175        C181   1.411       .  A
C175        C176   1.413       .  A
C176        C178   1.413       .  A
C176        C177   1.409       .  A
C177        C185   1.397       .  A
C178        C187   1.411       .  A
C178        C179   1.405       .  A
C179        C180   1.404       .  A
C179        H190   1.084       .  S
C180        C181   1.406       .  A
C180        H191   1.083       .  S
C181        C182   1.409       .  A
C182        C183   1.409       .  A
C182        H192   1.084       .  S
C183        C184   1.404       .  A
C184        H193   1.085       .  S
C185        C186   1.407       .  A
C185        H194   1.084       .  S
C186        C187   1.410       .  A
C187        H195   1.083       .  S
C196        C201   1.405       .  A
C196       C1088   1.402       .  A
C196        H212   1.083       .  S
C197        C198   1.406       .  A
C197       C1087   1.404       .  A
C197        H213   1.084       .  S
C198        C208   1.412   1_556  A
C198        C199   1.412   1_556  A
C199        C205   1.410       .  A
C199        C200   1.416   1_554  A
C200        C202   1.412   1_556  A
C200       C1092   1.412       .  A
C201        C209   1.408       .  A
C201       C1091   1.412       .  A
C202        C211   1.402   1_554  A
C202        C203   1.402       .  A
C203        C204   1.397       .  A
C203        H214   1.084       .  S
C204        C205   1.403       .  A
C204        H215   1.083       .  S
C205        C206   1.402       .  A
C206        C207   1.408       .  A
C206        H216   1.084       .  S
C207        C208   1.412       .  A
C208        H217   1.084       .  S
C209        C210   1.408       .  A
C209        H218   1.083       .  S
C210       C1102   1.403       .  A
C211       C1101   1.403       .  A
C211        H219   1.084       .  S
C220        C221   1.398       .  A
C220        C225   1.403       .  A
C220        H236   1.084       .  S
C221        C222   1.403       .  A
C221        H237   1.084       .  S
C222        C232   1.401       .  A
C222        C223   1.411       .  A
C223        C229   1.412       .  A
C223        C224   1.413       .  A
C224        C226   1.412       .  A
C224        C225   1.412       .  A
C225        C233   1.402       .  A
C226        C235   1.406       .  A
C226        C227   1.404       .  A
C227        C228   1.401       .  A
C227        H238   1.083       .  S
C228        C229   1.405       .  A
C228        H239   1.084       .  S
C229        C230   1.407       .  A
C230        C231   1.410       .  A
C230        H240   1.084       .  S
C231        C232   1.408       .  A
C232        H241   1.084       .  S
C233        C234   1.403       .  A
C233        H242   1.085       .  S
C234        C235   1.406       .  A
C235        H243   1.084       .  S
C244        C249   1.404       .  A
C244       C1136   1.400       .  A
C244       H1151   1.083       .  S
C245        C246   1.405       .  A
C245       C1135   1.403       .  A
C245        H261   1.084       .  S
C246        C256   1.411       .  A
C246       C1138   1.414       .  A
C247        C253   1.412       .  A
C247        C248   1.418   1_556  A
C247       C1137   1.411   1_556  A
C248        C250   1.412       .  A
C248        C249   1.411       .  A
C249        C257   1.406       .  A
C250        C259   1.411       .  A
C250        C251   1.405   1_554  A
C251        C252   1.404       .  A
C251        H262   1.084       .  S
C252        C253   1.405       .  A
C252        H263   1.083       .  S
C253        C254   1.412       .  A
C254       C1146   1.410       .  A
C254        H264   1.083       .  S
C255        C256   1.407       .  A
C255       C1145   1.407       .  A
C256        H265   1.083       .  S
C257        C258   1.409       .  A
C257        H266   1.084       .  S
C258        C259   1.411       .  A
C259        H267   1.084       .  S
H260       C1135   1.083       .  S
C268        C269   1.398       .  A
C268        C273   1.404       .  A
C268        H284   1.084       .  S
C269        C270   1.401       .  A
C269        H285   1.083       .  S
C270        C280   1.407       .  A
C270        C271   1.416       .  A
C271        C277   1.408       .  A
C271        C272   1.416       .  A
C272        C274   1.416       .  A
C272        C273   1.407       .  A
C273        C281   1.398       .  A
C274        C283   1.415       .  A
C274        C275   1.405       .  A
C275        C276   1.404       .  A
C275        H286   1.084       .  S
C276        C277   1.407       .  A
C276        H287   1.084       .  S
C277        C278   1.406       .  A
C278        C279   1.414       .  A
C278        H288   1.085       .  S
C279        C280   1.401       .  A
C280        H289   1.084       .  S
C281        C282   1.408       .  A
C281        H290   1.085       .  S
C282        C283   1.410       .  A
C283        H291   1.084       .  S
C292        C297   1.404       .  A
C292       C1184   1.401       .  A
C292        H308   1.083       .  S
C293        C294   1.406       .  A
C293       C1183   1.403       .  A
C293       H1200   1.084       .  S
C294        C304   1.410       .  A
C294        C295   1.411       .  A
C295        C301   1.413       .  A
C295        C296   1.419       .  A
C296        C298   1.410   1_554  A
C296       C1188   1.413       .  A
C297        C305   1.409       .  A
C297       C1187   1.413       .  A
C298        C307   1.406       .  A
C298        C299   1.404       .  A
C299        C300   1.401   1_556  A
C299        H310   1.083       .  S
C300        C301   1.404       .  A
C300        H311   1.084       .  S
C301        C302   1.409       .  A
C302        C303   1.409       .  A
C302        H312   1.084       .  S
C303        C304   1.412       .  A
C304        H313   1.084       .  S
C305        C306   1.407       .  A
C305        H314   1.084       .  S
C306       C1198   1.407       .  A
C307       C1197   1.408       .  A
C307        H315   1.084       .  S
H309       C1184   1.084       .  S
C316        C317   1.401       .  A
C316        C321   1.404       .  A
C316        H332   1.084       .  S
C317        C318   1.405       .  A
C317        H333   1.084       .  S
C318        C328   1.404       .  A
C318        C319   1.409       .  A
C319        C325   1.412       .  A
C319        C320   1.414       .  A
C320        C322   1.410       .  A
C320        C321   1.413       .  A
C321        C329   1.408       .  A
C322        C331   1.402       .  A
C322        C323   1.404       .  A
C323        C324   1.399       .  A
C323        H334   1.084       .  S
C324        C325   1.403       .  A
C324        H335   1.084       .  S
C325        C326   1.405       .  A
C326        C327   1.406       .  A
C326        H336   1.083       .  S
C327        C328   1.410       .  A
C328        H337   1.083       .  S
C329        C330   1.408       .  A
C329        H338   1.084       .  S
C330        C331   1.409       .  A
C331        H339   1.084       .  S
C340        C341   1.402       .  A
C340        C345   1.406       .  A
C340        H356   1.084       .  S
C341        C342   1.404       .  A
C341       H1248   1.084       .  S
C342        C343   1.415       .  A
C342       C1243   1.411       .  A
C343        C349   1.408   1_556  A
C343        C344   1.415   1_556  A
C344        C346   1.414       .  A
C344        C345   1.409   1_554  A
C345        C353   1.406   1_556  A
C346        C355   1.405       .  A
C346        C347   1.402       .  A
C347        C348   1.398       .  A
C347        H358   1.084       .  S
C348        C349   1.403       .  A
C348        H359   1.083       .  S
C349        C350   1.398   1_554  A
C350       C1242   1.407       .  A
C350        H360   1.085   1_556  S
C351        C352   1.404       .  A
C351       C1241   1.404       .  A
C352       C1233   1.403       .  A
C352        H361   1.084       .  S
C353        C354   1.413       .  A
C353        H362   1.084       .  S
C354        C355   1.406       .  A
C355        H363   1.084       .  S
H357       C1232   1.084       .  S
C364        C365   1.401   1_556  A
C364        C369   1.404       .  A
C364        H380   1.083       .  S
C365        C366   1.404       .  A
C365        H381   1.083       .  S
C366        C376   1.407       .  A
C366       C1258   1.412       .  A
C367        C373   1.412       .  A
C367        C368   1.417       .  A
C367       C1257   1.411       .  A
C368        C370   1.410       .  A
C368       C1260   1.412       .  A
C369       C1259   1.411       .  A
C369       C1268   1.406       .  A
C370        C379   1.407       .  A
C370        C371   1.405       .  A
C371        C372   1.401       .  A
C371        H382   1.083       .  S
C372        C373   1.404       .  A
C372        H383   1.084       .  S
C373        C374   1.408       .  A
C374       C1266   1.407       .  A
C374        H384   1.085       .  S
C375        C376   1.405       .  A
C375       C1265   1.407       .  A
C376        H385   1.085       .  S
C377        C378   1.407       .  A
C377       C1260   1.410       .  A
C377       H1277   1.084       .  S
C378        C379   1.408       .  A
C379        H387   1.084       .  S
H386       C1268   1.085       .  S
C388        C389   1.400       .  A
C388        C393   1.404       .  A
C388        H404   1.084       .  S
C389        C390   1.404   1_554  A
C389        H405   1.084       .  S
C390        C400   1.403       .  A
C390       C1282   1.411   1_556  A
C391        C397   1.414       .  A
C391        C392   1.416       .  A
C391       C1281   1.409       .  A
C392        C394   1.409       .  A
C392       C1284   1.414       .  A
C393        C401   1.406       .  A
C393       C1283   1.412       .  A
C394        C403   1.406       .  A
C394        C395   1.405       .  A
C395        C396   1.402       .  A
C395        H406   1.083       .  S
C396        C397   1.404       .  A
C396        H407   1.083       .  S
C397        C398   1.411       .  A
C398        C399   1.406       .  A
C398        H408   1.084       .  S
C399       C1291   1.409       .  A
C400       C1290   1.407       .  A
C400        H409   1.085       .  S
C401        C402   1.405       .  A
C401        H410   1.085       .  S
C402       C1294   1.404       .  A
C403       C1293   1.409       .  A
C403        H411   1.085       .  S
C412        C413   1.397       .  A
C412        C417   1.402       .  A
C412        H428   1.084       .  S
C413        C414   1.403       .  A
C413        H429   1.084       .  S
C414        C424   1.398       .  A
C414        C415   1.410       .  A
C415        C421   1.412       .  A
C415        C416   1.409       .  A
C416        C418   1.410       .  A
C416        C417   1.413       .  A
C417        C425   1.400       .  A
C418        C427   1.399       .  A
C418        C419   1.404       .  A
C419        C420   1.398       .  A
C419        H430   1.084       .  S
C420        C421   1.403       .  A
C420        H431   1.084       .  S
C421        C422   1.401       .  A
C422        C423   1.406       .  A
C422        H432   1.083       .  S
C423        C424   1.405       .  A
C424        H433   1.084       .  S
C425        C426   1.402   1_655  A
C425        H434   1.084       .  S
C426        C427   1.406   1_455  A
C427        H435   1.085   1_655  S
C436        C437   1.403       .  A
C436        C441   1.405       .  A
C436        H452   1.083       .  S
C437        C438   1.406       .  A
C437        H453   1.084       .  S
C438        C448   1.408       .  A
C438        C439   1.410       .  A
C439        C445   1.415       .  A
C439        C440   1.418       .  A
C440        C442   1.409       .  A
C440        C441   1.414       .  A
C441        C449   1.413       .  A
C442        C451   1.405       .  A
C442        C443   1.405       .  A
C443        C444   1.401       .  A
C443        H454   1.083       .  S
C444        C445   1.404       .  A
C444        H455   1.083   1_655  S
C445        C446   1.410   1_655  A
C446        C447   1.405   1_455  A
C446        H456   1.084       .  S
C447        C448   1.409       .  A
C448        H457   1.085       .  S
C449        C450   1.408       .  A
C449        H458   1.083       .  S
C450        N992   1.450       .  S
C450        C451   1.410       .  A
C451        H459   1.084       .  S
C460        C461   1.399       .  A
C460        C465   1.404       .  A
C460        H476   1.084       .  S
C461        C462   1.403       .  A
C461        H477   1.084       .  S
C462        C472   1.405       .  A
C462        C463   1.414       .  A
C463        C469   1.411       .  A
C463        C464   1.415       .  A
C464        C466   1.414       .  A
C464        C465   1.410       .  A
C465        C473   1.401       .  A
C466        C475   1.412   1_655  A
C466        C467   1.405       .  A
C467        C468   1.403       .  A
C467        H478   1.083   1_655  S
C468        C469   1.405       .  A
C468        H479   1.084       .  S
C469        C470   1.407       .  A
C470        C471   1.407       .  A
C470        H480   1.084       .  S
C471        C472   1.403       .  A
C472        H481   1.085       .  S
C473        C474   1.407       .  A
C473        H482   1.085       .  S
C474        C475   1.408   1_655  A
C475        H483   1.084       .  S
C484        C489   1.403       .  A
C484       C1376   1.399       .  A
C484        H500   1.084   1_655  S
C485       C1375   1.402       .  A
C485       C1377   1.405       .  A
C485        H501   1.084       .  S
C486        C487   1.408       .  A
C486       C1376   1.404       .  A
C486       C1387   1.401       .  A
C487        C493   1.416       .  A
C487        C488   1.418       .  A
C488        C490   1.409       .  A
C488        C489   1.414       .  A
C489        C497   1.408   1_655  A
C490        C499   1.409       .  A
C490        C491   1.407       .  A
C491        C492   1.404       .  A
C491        H502   1.083       .  S
C492        C493   1.405       .  A
C492        H503   1.083       .  S
C493        C494   1.416       .  A
C494       C1386   1.407       .  A
C494        H504   1.083       .  S
C495        C496   1.409       .  A
C495       C1385   1.406       .  A
C496       C1377   1.406       .  A
C496        H505   1.084       .  S
C497        C498   1.406   1_455  A
C497        H506   1.084       .  S
C498        C499   1.413       .  A
C499        H507   1.084       .  S
C508        C509   1.397       .  A
C508        C513   1.402       .  A
C508        H524   1.084       .  S
C509        C510   1.403       .  A
C509        H525   1.083       .  S
C510        C520   1.398       .  A
C510        C511   1.410       .  A
C511        C517   1.412       .  A
C511        C512   1.411       .  A
C512        C514   1.411       .  A
C512        C513   1.412       .  A
C513        C521   1.401       .  A
C514        C523   1.404       .  A
C514        C515   1.405       .  A
C515        C516   1.400       .  A
C515        H526   1.083       .  S
C516        C517   1.404       .  A
C516        H527   1.084       .  S
C517        C518   1.405       .  A
C518        C519   1.406       .  A
C518        H528   1.080       .  S
C519        C520   1.406       .  A
C520        H529   1.084       .  S
C521        C522   1.404       .  A
C521        H530   1.084       .  S
C522        C523   1.409       .  A
C523        H531   1.084       .  S
C532        C533   1.401       .  A
C532        C537   1.404       .  A
C532       H1439   1.084       .  S
C533        C534   1.405       .  A
C533        H549   1.083       .  S
C534        C544   1.406       .  A
C534        C535   1.411       .  A
C535        C541   1.413       .  A
C535        C536   1.417       .  A
C536        C538   1.412       .  A
C536        C537   1.413       .  A
C537       C1436   1.408       .  A
C538        C547   1.409       .  A
C538        C539   1.405       .  A
C539        C540   1.403       .  A
C539        H550   1.084       .  S
C540        C541   1.405       .  A
C540        H551   1.083       .  S
C541        C542   1.411       .  A
C542        C543   1.406       .  A
C542        H552   1.084       .  S
C543        C544   1.407       .  A
C544        H553   1.085       .  S
C545        C546   1.404       .  A
C545       C1428   1.405       .  A
C545        H554   1.084       .  S
C546       C1438   1.404       .  A
C547       C1437   1.407       .  A
C547        H555   1.084       .  S
H548       C1423   1.084       .  S
C556        C557   1.401       .  A
C556        C561   1.404       .  A
C556        H572   1.084       .  S
C557        C558   1.404       .  A
C557        H573   1.083       .  S
C558        C568   1.405       .  A
C558        C559   1.412       .  A
C559        C565   1.412       .  A
C559        C560   1.412       .  A
C560        C562   1.411       .  A
C560        C561   1.412       .  A
C561        C569   1.405       .  A
C562        C571   1.401       .  A
C562        C563   1.403       .  A
C563        C564   1.398       .  A
C563        H574   1.084       .  S
C564        C565   1.403       .  A
C564        H575   1.083       .  S
C565        C566   1.402       .  A
C566        C567   1.402       .  A
C566        H576   1.085       .  S
C567        C568   1.406       .  A
C568        H577   1.084       .  S
C569        C570   1.409       .  A
C569        H578   1.084       .  S
C570        C571   1.406       .  A
C571        H579   1.084       .  S
C580        C581   1.399       .  A
C580        C585   1.404       .  A
C580        H596   1.084       .  S
C581        C582   1.403       .  A
C581        H597   1.083       .  S
C582        C592   1.408       .  A
C582        C583   1.414       .  A
C583        C589   1.409       .  A
C583        C584   1.417       .  A
C584        C586   1.414       .  A
C584        C585   1.408       .  A
C585        C593   1.401       .  A
C586        C595   1.414       .  A
C586        C587   1.405       .  A
C587        C588   1.404       .  A
C587        H598   1.083       .  S
C588        C589   1.406       .  A
C588        H599   1.084       .  S
C589        C590   1.409       .  A
C590        C591   1.413       .  A
C590        H600   1.084       .  S
C591        C592   1.407       .  A
C592        H601   1.083       .  S
C593        C594   1.410       .  A
C593        H602   1.084       .  S
C594        N999   1.450       .  S
C594        C595   1.408       .  A
C595        H603   1.079       .  S
C604        C605   1.406       .  A
C604       C1500   1.406       .  A
C604        H620   1.083       .  S
C605        C606   1.406       .  A
C605        H621   1.083       .  S
C606        C616   1.417       .  A
C606       C1498   1.414       .  A
C607        C613   1.412       .  A
C607        C608   1.420       .  A
C607       C1497   1.411       .  A
C608        C610   1.410       .  A
C608        C609   1.413       .  A
C609        C617   1.414       .  A
C609       C1495   1.405       .  A
C610        C619   1.407       .  A
C610        C611   1.405       .  A
C611        C612   1.401       .  A
C611        H622   1.083       .  S
C612        C613   1.404       .  A
C612        H623   1.084       .  S
C613        C614   1.409       .  A
C614       C1506   1.408       .  A
C614        H624   1.085       .  S
C615        C616   1.410       .  A
C615       C1505   1.409       .  A
C616        H625   1.084       .  S
C617        C618   1.409       .  A
C617        H626   1.084       .  S
C618        C619   1.410       .  A
C619        H627   1.085       .  S
C628        C629   1.400       .  A
C628        C633   1.404       .  A
C628        H644   1.083       .  S
C629        C630   1.403       .  A
C629        H645   1.084       .  S
C630        C640   1.407       .  A
C630        C631   1.414       .  A
C631        C637   1.410       .  A
C631        C632   1.413       .  A
C632        C634   1.414       .  A
C632        C633   1.410       .  A
C633        C641   1.403       .  A
C634        C643   1.405       .  A
C634        C635   1.403       .  A
C635        C636   1.398       .  A
C635        H646   1.084       .  S
C636        C637   1.404       .  A
C636        H647   1.084       .  S
C637        C638   1.400       .  A
C638        C639   1.408       .  A
C638        H648   1.085       .  S
C639        C640   1.404       .  A
C640        H649   1.084       .  S
C641        C642   1.408       .  A
C641        H650   1.085       .  S
C642        C643   1.405       .  A
C643        H651   1.085       .  S
C652        C653   1.402       .  A
C652        C657   1.405       .  A
C652        H668   1.084       .  S
C653        C654   1.405       .  A
C653        H669   1.083       .  S
C654        C664   1.407   1_554  A
C654        C655   1.410       .  A
C655        C661   1.414       .  A
C655        C656   1.418       .  A
C656        C658   1.410       .  A
C656        C657   1.413       .  A
C657        C665   1.410       .  A
C658        C667   1.408       .  A
C658        C659   1.405       .  A
C659        C660   1.402       .  A
C659        H670   1.083       .  S
C660        C661   1.404       .  A
C660        H671   1.084       .  S
C661        C662   1.410       .  A
C662        C663   1.406   1_554  A
C662        H672   1.083       .  S
C663        N942   1.447       .  S
C663        C664   1.409       .  A
C664        H673   1.084       .  S
C665        C666   1.410       .  A
C665        H674   1.083       .  S
C666        C667   1.411       .  A
C667        H675   1.084       .  S
C676        C677   1.402       .  A
C676        C681   1.405       .  A
C676        H692   1.083       .  S
C677        C678   1.405       .  A
C677        H693   1.084       .  S
C678        C688   1.409       .  A
C678        C679   1.411       .  A
C679        C685   1.412       .  A
C679        C680   1.416       .  A
C680        C682   1.412       .  A
C680        C681   1.413       .  A
C681        C689   1.409       .  A
C682        C691   1.405       .  A
C682        C683   1.404       .  A
C683        C684   1.400       .  A
C683        H694   1.084       .  S
C684        C685   1.404       .  A
C684        H695   1.084       .  S
C685        C686   1.406       .  A
C686        C687   1.408       .  A
C686        H696   1.084       .  S
C687        C688   1.411       .  A
C688        H697   1.084       .  S
C689        C690   1.406       .  A
C689        H698   1.084       .  S
C690        C691   1.405       .  A
C691        H699   1.085       .  S
C700        C701   1.403   1_556  A
C700        C705   1.405       .  A
C700       H1607   1.084       .  S
C701        C702   1.405       .  A
C701        H717   1.084   1_554  S
C702        C712   1.409       .  A
C702        C703   1.413       .  A
C703        C709   1.411       .  A
C703        C704   1.411       .  A
C704        C706   1.411       .  A
C704        C705   1.412   1_554  A
C705       C1604   1.408       .  A
C706        C715   1.396       .  A
C706        C707   1.401       .  A
C707        C708   1.394       .  A
C707        H718   1.084       .  S
C708        C709   1.402       .  A
C708        H719   1.084       .  S
C709        C710   1.395       .  A
C710        C711   1.403       .  A
C710        H720   1.085       .  S
C711        C712   1.407       .  A
C712        H721   1.084       .  S
C713       C1596   1.404       .  A
C713       C1605   1.404       .  A
C713        H722   1.083       .  S
C714        C939   1.480       .  S
C714        C715   1.402   1_556  A
C714       C1604   1.408       .  A
C715        H723   1.085       .  S
H716       C1591   1.084       .  S
C724        C725   1.406       .  A
C724        C729   1.407       .  A
C724        H740   1.083       .  S
C725        C726   1.406       .  A
C725        H741   1.083       .  S
C726        C736   1.413       .  A
C726        C727   1.411       .  A
C727        C733   1.412       .  A
C727        C728   1.415       .  A
C728        C730   1.408       .  A
C728        C729   1.414       .  A
C729        C737   1.416       .  A
C730        C739   1.397       .  A
C730        C731   1.403       .  A
C731        C732   1.395       .  A
C731        H742   1.084       .  S
C732        C733   1.401       .  A
C732        H743   1.084       .  S
C733        C734   1.399       .  A
C734        C735   1.403       .  A
C734        H744   1.084       .  S
C735        C736   1.411       .  A
C736        H745   1.084       .  S
C737        C738   1.412       .  A
C737        H746   1.084       .  S
C738        C739   1.410       .  A
C739        H747   1.084       .  S
C748        C749   1.398       .  A
C748        C753   1.403       .  A
C748        H764   1.084       .  S
C749        C750   1.403       .  A
C749        H765   1.083       .  S
C750        C760   1.401       .  A
C750       C1642   1.410       .  A
C751        C757   1.412       .  A
C751       C1641   1.410       .  A
C751       C1643   1.417       .  A
C752        C753   1.412       .  A
C752       C1642   1.413       .  A
C752       C1645   1.411       .  A
C753        C761   1.402       .  A
C754        C763   1.410       .  A
C754        C755   1.406       .  A
C754       C1643   1.411       .  A
C755        C756   1.404       .  A
C755        H766   1.084       .  S
C756        C757   1.405       .  A
C756        H767   1.083       .  S
C757        C758   1.411       .  A
C758        C759   1.409       .  A
C758        H768   1.084       .  S
C759       C1651   1.406       .  A
C760       C1650   1.407       .  A
C760        H769   1.085       .  S
C761        C762   1.403       .  A
C761        H770   1.085       .  S
C762       C1654   1.406       .  A
C763       C1653   1.410       .  A
C763        H771   1.084       .  S
C772        C773   1.402       .  A
C772        C777   1.406       .  A
C772        H788   1.084       .  S
C773        C774   1.404       .  A
C773        H789   1.083       .  S
C774        C784   1.412       .  A
C774        C775   1.413       .  A
C775        C781   1.410       .  A
C775        C776   1.422       .  A
C776        C778   1.413       .  A
C776        C777   1.410       .  A
C777        C785   1.409       .  A
C778        C787   1.416       .  A
C778        C779   1.406       .  A
C779        C780   1.405       .  A
C779        H790   1.084   1_565  S
C780        C781   1.406       .  A
C780       H1682   1.083   1_554  S
C781        C782   1.412       .  A
C782        C783   1.414       .  A
C782       H1683   1.083   1_554  S
C783        N899   1.458   1_554  S
C783        C784   1.410       .  A
C784        H793   1.083       .  S
C785        C786   1.413       .  A
C785        H794   1.084       .  S
C786        C787   1.413       .  A
C787        H795   1.084   1_565  S
H791       C1671   1.083       .  S
H792       C1673   1.083       .  S
C796        C797   1.398       .  A
C796        C801   1.402       .  A
C796        H812   1.084       .  S
C797        C798   1.404       .  A
C797        H813   1.083       .  S
C798        C808   1.396       .  A
C798        C799   1.409       .  A
C799        C805   1.414       .  A
C799        C800   1.406       .  A
C800        C802   1.408       .  A
C800        C801   1.415       .  A
C801        C809   1.402       .  A
C802        C811   1.391       .  A
C802        C803   1.403       .  A
C803        C804   1.394       .  A
C803        H814   1.084       .  S
C804        C805   1.401       .  A
C804        H815   1.084       .  S
C805        C806   1.397       .  A
C806        C807   1.400       .  A
C806        H816   1.084       .  S
C807        C808   1.404       .  A
C808        H817   1.085       .  S
C809        C810   1.403       .  A
C809        H818   1.084   1_565  S
C810        C811   1.407       .  A
C811        H819   1.084       .  S
C820        C821   1.400       .  A
C820        C825   1.404       .  A
C820        H836   1.083       .  S
C821        C822   1.403       .  A
C821        H837   1.083       .  S
C822        C832   1.406       .  A
C822        C823   1.413       .  A
C823        C829   1.410       .  A
C823        C824   1.414       .  A
C824        C826   1.413       .  A
C824        C825   1.410       .  A
C825        C833   1.403       .  A
C826        C835   1.408       .  A
C826        C827   1.404       .  A
C827        C828   1.400       .  A
C827        H838   1.084       .  S
C828        C829   1.404       .  A
C828        H839   1.084       .  S
C829        C830   1.403       .  A
C830        C831   1.409       .  A
C830        H840   1.084       .  S
C831        C832   1.405       .  A
C832        H841   1.084       .  S
C833        C834   1.407       .  A
C833        H842   1.085       .  S
C834        C835   1.405       .  A
C835        H843   1.085       .  S
C844        C845   1.400       .  A
C844        C849   1.404       .  A
C844        H860   1.084       .  S
C845        C846   1.404       .  A
C845        H861   1.084       .  S
C846        C856   1.405       .  A
C846        C847   1.413       .  A
C847        C853   1.411       .  A
C847        C848   1.410       .  A
C848        C850   1.412       .  A
C848        C849   1.411       .  A
C849        C857   1.402   1_554  A
C850        C859   1.401   1_554  A
C850        C851   1.403       .  A
C851        C852   1.397   1_565  A
C851        H862   1.083       .  S
C852        C853   1.403   1_545  A
C852        H863   1.084       .  S
C853        C854   1.399   1_565  A
C854        C855   1.401   1_545  A
C854        H864   1.084       .  S
C855        C856   1.403       .  A
C856        H865   1.085       .  S
C857        C858   1.404       .  A
C857       H1757   1.084       .  S
C858        C859   1.402       .  A
C859        H867   1.085       .  S
H866       C1748   1.085       .  S
C868        C869   1.405       .  A
C868        C873   1.406       .  A
C868        H884   1.083       .  S
C869        C870   1.405       .  A
C869        H885   1.083       .  S
C870        C880   1.413       .  A
C870        C871   1.412       .  A
C871        C877   1.412       .  A
C871        C872   1.420       .  A
C872        C874   1.410       .  A
C872        C873   1.412       .  A
C873        C881   1.415       .  A
C874        C883   1.407       .  A
C874        C875   1.405       .  A
C875        C876   1.401       .  A
C875        H886   1.084       .  S
C876        C877   1.404       .  A
C876        H887   1.083       .  S
C877        C878   1.407       .  A
C878        C879   1.406       .  A
C878        H888   1.084       .  S
C879        C880   1.407       .  A
C880        H889   1.084       .  S
C881        C882   1.412       .  A
C881        H890   1.084       .  S
C882        C883   1.412       .  A
C883        H891   1.084       .  S
N892        C893   1.360       .  A
N892       C1770   1.443       .  S
C893       C1725   1.482       .  S
C894        C895   1.364       .  A
C894        H897   1.083       .  S
C895        C896   1.379       .  A
C895        H898   1.082       .  S
C896       C1749   1.469       .  S
N899        C903   1.370       .  A
N899        C900   1.371       .  A
C900       C1653   1.480   1_556  S
C900        C901   1.381       .  A
C901        C902   1.361       .  A
C901        H904   1.083       .  S
C902        C903   1.380       .  A
C902        H905   1.083       .  S
C903       C1698   1.483       .  S
O906        C914   1.264   1_545  A
O906       Co926   1.990       .  S
O907        C915   1.275       .  A
O907       Co927   1.991       .  S
O908        C916   1.300       .  A
O908       Co928   2.120       .  S
O909        C917   1.275       .  A
O909       Co929   2.039       .  S
O910        C916   1.262       .  A
O910       Co927   1.873       .  S
O911        C917   1.261       .  A
O911       Co926   1.967       .  S
O912        C915   1.279       .  A
O912       Co929   2.021       .  S
O913        C914   1.267       .  A
O913       Co928   2.011   1_565  S
C914       C1773   1.483       .  S
C915       C1557   1.496       .  S
C916       C1746   1.459   1_545  S
C917       C1578   1.489       .  S
O918        C931   1.277       .  A
O918       Co926   2.048       .  S
O919        C932   1.308   1_545  A
O919       Co927   2.159       .  S
O920        C933   1.270       .  A
O920       Co928   1.985       .  S
O921        C934   1.258       .  A
O921       Co929   1.979       .  S
O922        C934   1.258       .  A
O922       Co927   1.994       .  S
O923        C933   1.274       .  A
O923       Co926   2.011       .  S
O924        C931   1.259       .  A
O924       Co929   1.945       .  S
O925        C932   1.264       .  A
O925       Co928   1.874   1_565  S
Co926       O930   2.048       .  S
Co927       O930   2.008       .  S
Co928       O930   1.998       .  S
Co929       O930   2.028       .  S
C931       C1629   1.481       .  S
C932       C1677   1.495       .  S
C933       C1701   1.487   1_545  S
C934       C1602   1.477       .  S
N935        C939   1.359       .  A
N935        C936   1.359       .  A
N935       C1626   1.438       .  S
C936       C1533   1.484       .  S
C936        C937   1.384       .  A
C937        H940   1.082       .  S
C938        H941   1.082       .  S
N942        C946   1.365       .  A
N942        C943   1.368       .  A
C943       C1506   1.485   1_556  S
C943        C944   1.382       .  A
C944        C945   1.369       .  A
C944        H947   1.083       .  S
C945        C946   1.379       .  A
C945        H948   1.082       .  S
C946       C1581   1.484       .  S
O949        C957   1.262       .  A
O949       Co969   1.996       .  S
O950        C958   1.268       .  A
O950       Co970   1.894       .  S
O951        C959   1.267       .  A
O951       Co971   2.020       .  S
O952        C960   1.299       .  A
O952       Co972   2.079       .  S
O953        C959   1.255       .  A
O953       Co970   1.987       .  S
O954        C960   1.275       .  A
O954       Co969   1.906       .  S
O955        C958   1.299       .  A
O955       Co972   2.079       .  S
O956        C957   1.266       .  A
O956       Co971   2.013       .  S
C957       C1482   1.492       .  S
C958       C1317   1.471       .  S
C959       C1461   1.483       .  S
C960       C1338   1.480   1_455  S
O961        C974   1.256       .  A
O961       Co969   1.993       .  S
O962        C975   1.267       .  A
O962       Co970   2.007       .  S
O963        C976   1.263       .  A
O963       Co971   1.974       .  S
O964        C977   1.257   1_655  A
O964       Co972   2.014   1_655  S
O965        C977   1.243       .  A
O965       Co970   1.961       .  S
O966        C976   1.276       .  A
O966       Co969   2.033       .  S
O967        C974   1.257   1_655  A
O967       Co972   1.999   1_655  S
O968        C975   1.265       .  A
O968       Co971   1.984       .  S
Co969       O973   1.943       .  S
Co970       O973   1.917       .  S
Co971       O973   2.096       .  S
Co972       O973   2.258       .  S
C974       C1389   1.494   1_455  S
C975       C1413   1.481       .  S
C976       C1434   1.476       .  S
C977       C1365   1.478   1_455  S
N978        C982   1.360       .  A
N978        C979   1.363       .  A
N978       C1437   1.443       .  S
C979       C1293   1.482       .  S
C979        C980   1.384       .  A
C980        C981   1.370       .  A
C980        H983   1.083       .  S
C981        C982   1.380       .  A
C981        H984   1.082       .  S
C982       C1410   1.482       .  S
N985        C989   1.359       .  A
N985        C986   1.365       .  A
N985       C1386   1.446       .  S
C986       C1509   1.484       .  S
C986        C987   1.384       .  A
C987        C988   1.373       .  A
C987        H990   1.082       .  S
C988        C989   1.378       .  A
C988        H991   1.082       .  S
C989       C1362   1.478       .  S
N992        C996   1.366       .  A
N992        C993   1.365       .  A
C993       C1266   1.476       .  S
C993        C994   1.381       .  A
C994        C995   1.366       .  A
C994        H997   1.083       .  S
C995        C996   1.381       .  A
C995        H998   1.082       .  S
C996       C1314   1.485       .  S
N999       C1003   1.359       .  A
N999       C1000   1.364       .  A
C1000      C1650   1.480       .  S
C1000      C1001   1.386       .  A
C1001      C1002   1.366       .  A
C1001      H1004   1.083       .  S
C1002      C1003   1.375       .  A
C1002      H1005   1.082       .  S
C1003      C1458   1.470       .  S
O1006      C1014   1.275       .  A
O1006     Co1026   2.006       .  S
O1007      C1015   1.255       .  A
O1007     Co1027   1.984       .  S
O1008      C1016   1.261       .  A
O1008     Co1028   1.888       .  S
O1009      C1017   1.259       .  A
O1009     Co1029   1.954       .  S
O1010      C1016   1.298       .  A
O1010     Co1027   2.122       .  S
O1011      C1017   1.276       .  A
O1011     Co1026   2.046       .  S
O1012      C1015   1.257       .  A
O1012     Co1029   1.972       .  S
O1013      C1014   1.271       .  A
O1013     Co1028   1.975       .  S
C1014      C1245   1.475       .  S
C1015      C1074   1.466       .  S
C1016      C1221   1.488       .  S
C1017      C1098   1.487       .  S
O1018      C1031   1.265       .  A
O1018     Co1026   1.971       .  S
O1019      C1032   1.260       .  A
O1019     Co1027   1.874       .  S
O1020      C1033   1.262       .  A
O1020     Co1028   1.988       .  S
O1021      C1034   1.275       .  A
O1021     Co1029   2.009       .  S
O1022      C1034   1.270       .  A
O1022     Co1027   1.975       .  S
O1023      C1033   1.266       .  A
O1023     Co1026   1.997       .  S
O1024      C1031   1.275       .  A
O1024     Co1029   2.033       .  S
O1025      C1032   1.301       .  A
O1025     Co1028   2.131       .  S
Co1026     O1030   2.046       .  S
Co1027     O1030   2.016       .  S
Co1028     O1030   1.993       .  S
Co1029     O1030   2.026       .  S
C1031      C1149   1.481       .  S
C1032      C1170   1.472       .  S
C1033      C1194   1.487       .  S
C1034      C1122   1.458       .  S
N1035      C1039   1.368       .  A
N1035      C1036   1.369       .  A
N1035      C1218   1.448       .  S
C1036      C1530   1.493       .  S
C1036      C1037   1.386       .  A
C1037      C1038   1.362       .  A
C1037      H1040   1.082       .  S
C1038      C1039   1.379       .  A
C1039      C1242   1.487       .  S
N1042      C1046   1.363       .  A
N1042      C1043   1.362       .  A
N1042      C1101   1.444       .  S
C1043      C1290   1.475       .  S
C1043      C1044   1.380       .  A
C1044      C1045   1.367       .  A
C1044      H1047   1.082       .  S
C1045      C1046   1.383       .  A
C1045      H1048   1.082       .  S
C1046      C1077   1.483       .  S
N1049      C1053   1.363       .  A
N1049      C1050   1.364       .  A
N1049      C1197   1.448       .  S
C1050      C1269   1.474       .  S
C1050      C1051   1.381       .  A
C1051      C1052   1.365       .  A
C1051      H1054   1.083       .  S
C1052      C1053   1.381       .  A
C1052      H1055   1.082       .  S
C1053      C1173   1.480       .  S
N1056      C1060   1.356       .  A
N1056      C1057   1.363       .  A
N1056      C1146   1.448       .  S
C1057      C1722   1.481       .  S
C1057      C1058   1.386       .  A
C1058      C1059   1.367       .  A
C1058      H1061   1.083       .  S
C1059      C1060   1.377       .  A
C1059      H1062   1.082       .  S
C1060      C1125   1.467       .  S
C1063      C1064   1.395       .  A
C1063      C1068   1.402       .  A
C1063      H1079   1.083       .  S
C1064      C1065   1.402       .  A
C1064      H1080   1.084       .  S
C1065      C1075   1.396       .  A
C1065      C1066   1.411       .  A
C1066      C1072   1.412       .  A
C1066      C1067   1.408       .  A
C1067      C1069   1.411       .  A
C1067      C1068   1.410       .  A
C1068      C1076   1.396       .  A
C1069      C1078   1.403       .  A
C1069      C1070   1.404       .  A
C1070      C1071   1.400       .  A
C1070      H1081   1.084       .  S
C1071      C1072   1.404       .  A
C1071      H1082   1.083       .  S
C1072      C1073   1.403       .  A
C1073      C1074   1.406       .  A
C1073      H1083   1.084       .  S
C1074      C1075   1.402       .  A
C1075      H1084   1.085       .  S
C1076      C1077   1.405       .  A
C1076      H1085   1.084       .  S
C1077      C1078   1.408       .  A
C1078      H1086   1.081       .  S
C1087      C1092   1.406       .  A
C1087      H1103   1.083       .  S
C1088      C1089   1.405       .  A
C1088      H1104   1.083       .  S
C1089      C1099   1.409       .  A
C1089      C1090   1.412       .  A
C1090      C1096   1.410       .  A
C1090      C1091   1.414       .  A
C1091      C1093   1.412       .  A
C1092      C1100   1.410       .  A
C1093      C1102   1.402       .  A
C1093      C1094   1.402       .  A
C1094      C1095   1.398       .  A
C1094      H1105   1.084       .  S
C1095      C1096   1.403       .  A
C1095      H1106   1.084       .  S
C1096      C1097   1.401       .  A
C1097      C1098   1.409       .  A
C1097      H1107   1.084       .  S
C1098      C1099   1.410       .  A
C1099      H1108   1.084       .  S
C1100      C1101   1.411       .  A
C1100      H1109   1.084       .  S
C1102      H1110   1.084       .  S
C1111      C1112   1.398       .  A
C1111      C1116   1.404       .  A
C1111      H1127   1.084       .  S
C1112      C1113   1.402       .  A
C1112      H1128   1.084       .  S
C1113      C1123   1.404       .  A
C1113      C1114   1.416       .  A
C1114      C1120   1.410       .  A
C1114      C1115   1.409       .  A
C1115      C1117   1.416       .  A
C1115      C1116   1.410       .  A
C1116      C1124   1.399       .  A
C1117      C1126   1.403       .  A
C1117      C1118   1.402       .  A
C1118      C1119   1.397       .  A
C1118      H1129   1.084       .  S
C1119      C1120   1.404       .  A
C1119      H1130   1.084       .  S
C1120      C1121   1.397       .  A
C1121      C1122   1.403       .  A
C1121      H1131   1.085       .  S
C1122      C1123   1.400       .  A
C1123      H1132   1.085       .  S
C1124      C1125   1.404       .  A
C1124      H1133   1.085       .  S
C1125      C1126   1.400       .  A
C1126      H1134   1.085       .  S
C1135      C1140   1.405       .  A
C1136      C1137   1.403       .  A
C1136      H1152   1.084       .  S
C1137      C1147   1.405   1_554  A
C1138      C1144   1.410       .  A
C1138      C1139   1.416       .  A
C1139      C1141   1.413       .  A
C1139      C1140   1.411       .  A
C1140      C1148   1.407       .  A
C1141      C1150   1.405       .  A
C1141      C1142   1.402       .  A
C1142      C1143   1.399       .  A
C1142      H1153   1.084       .  S
C1143      C1144   1.404       .  A
C1143      H1154   1.083       .  S
C1144      C1145   1.403       .  A
C1145      H1155   1.084       .  S
C1146      C1147   1.407       .  A
C1147      H1156   1.084       .  S
C1148      C1149   1.410       .  A
C1148      H1157   1.084       .  S
C1149      C1150   1.405       .  A
C1150      H1158   1.085       .  S
C1159      C1160   1.399       .  A
C1159      C1164   1.404       .  A
C1159      H1175   1.084       .  S
C1160      C1161   1.403       .  A
C1160      H1176   1.083       .  S
C1161      C1171   1.407       .  A
C1161      C1162   1.416       .  A
C1162      C1168   1.409       .  A
C1162      C1163   1.411       .  A
C1163      C1165   1.415       .  A
C1163      C1164   1.409       .  A
C1164      C1172   1.399       .  A
C1165      C1174   1.405       .  A
C1165      C1166   1.403       .  A
C1166      C1167   1.399       .  A
C1166      H1177   1.084       .  S
C1167      C1168   1.405       .  A
C1167      H1178   1.084       .  S
C1168      C1169   1.399       .  A
C1169      C1170   1.407       .  A
C1169      H1179   1.085       .  S
C1170      C1171   1.402       .  A
C1171      H1180   1.084       .  S
C1172      C1173   1.406       .  A
C1172      H1181   1.085       .  S
C1173      C1174   1.404       .  A
C1174      H1182   1.084       .  S
C1183      C1188   1.405       .  A
C1183      H1199   1.083       .  S
C1184      C1185   1.405       .  A
C1185      C1195   1.405       .  A
C1185      C1186   1.410       .  A
C1186      C1192   1.413       .  A
C1186      C1187   1.417       .  A
C1187      C1189   1.411       .  A
C1188      C1196   1.412   1_554  A
C1189      C1198   1.406       .  A
C1189      C1190   1.404       .  A
C1190      C1191   1.401       .  A
C1190      H1201   1.083       .  S
C1191      C1192   1.404       .  A
C1191      H1202   1.084       .  S
C1192      C1193   1.409       .  A
C1193      C1194   1.407       .  A
C1193      H1203   1.084       .  S
C1194      C1195   1.410       .  A
C1195      H1204   1.085       .  S
C1196      C1197   1.408       .  A
C1196      H1205   1.084       .  S
C1198      H1206   1.084       .  S
C1207      C1208   1.402       .  A
C1207      C1212   1.404       .  A
C1207      H1223   1.083       .  S
C1208      C1209   1.405       .  A
C1208      H1224   1.083       .  S
C1209      C1219   1.406       .  A
C1209      C1210   1.410       .  A
C1210      C1216   1.412       .  A
C1210      C1211   1.415       .  A
C1211      C1213   1.409       .  A
C1211      C1212   1.413       .  A
C1212      C1220   1.410       .  A
C1213      C1222   1.402       .  A
C1213      C1214   1.404       .  A
C1214      C1215   1.399       .  A
C1214      H1225   1.084       .  S
C1215      C1216   1.403       .  A
C1215      H1226   1.084       .  S
C1216      C1217   1.405       .  A
C1217      C1218   1.407       .  A
C1217      H1227   1.083       .  S
C1218      C1219   1.409       .  A
C1219      H1228   1.083       .  S
C1220      C1221   1.408       .  A
C1220      H1229   1.084       .  S
C1221      C1222   1.410       .  A
C1222      H1230   1.084       .  S
C1231      C1232   1.398       .  A
C1231      C1236   1.404       .  A
C1231      H1247   1.084       .  S
C1232      C1233   1.403       .  A
C1233      C1234   1.414       .  A
C1234      C1240   1.410       .  A
C1234      C1235   1.409       .  A
C1235      C1237   1.413       .  A
C1235      C1236   1.410       .  A
C1236      C1244   1.399       .  A
C1237      C1246   1.401       .  A
C1237      C1238   1.402       .  A
C1238      C1239   1.397       .  A
C1238      H1249   1.084       .  S
C1239      C1240   1.403       .  A
C1239      H1250   1.083       .  S
C1240      C1241   1.398       .  A
C1241      H1251   1.085       .  S
C1242      C1243   1.407       .  A
C1243      H1252   1.084       .  S
C1244      C1245   1.408       .  A
C1244      H1253   1.084       .  S
C1245      C1246   1.404       .  A
C1246      H1254   1.084       .  S
C1255      C1256   1.402       .  A
C1255      C1260   1.405       .  A
C1255      H1271   1.083       .  S
C1256      C1257   1.404       .  A
C1256      H1272   1.083       .  S
C1257      C1267   1.407       .  A
C1258      C1264   1.411       .  A
C1258      C1259   1.415   1_554  A
C1259      C1261   1.412       .  A
C1261      C1270   1.407       .  A
C1261      C1262   1.404   1_556  A
C1262      C1263   1.401       .  A
C1262      H1273   1.083       .  S
C1263      C1264   1.404       .  A
C1263      H1274   1.084       .  S
C1264      C1265   1.405       .  A
C1265      H1275   1.085       .  S
C1266      C1267   1.407       .  A
C1267      H1276   1.085       .  S
C1268      C1269   1.406       .  A
C1269      C1270   1.406       .  A
C1270      H1278   1.084       .  S
C1279      C1280   1.401       .  A
C1279      C1284   1.404       .  A
C1279      H1295   1.084       .  S
C1280      C1281   1.405       .  A
C1280      H1296   1.083       .  S
C1281      C1291   1.403       .  A
C1282      C1288   1.413   1_554  A
C1282      C1283   1.414       .  A
C1283      C1285   1.412       .  A
C1284      C1292   1.409       .  A
C1285      C1294   1.404       .  A
C1285      C1286   1.404       .  A
C1286      C1287   1.400   1_554  A
C1286      H1297   1.083       .  S
C1287      C1288   1.403       .  A
C1287      H1298   1.083       .  S
C1288      C1289   1.406       .  A
C1289      C1290   1.403       .  A
C1289      H1299   1.084       .  S
C1291      H1300   1.084       .  S
C1292      C1293   1.405       .  A
C1292      H1301   1.084       .  S
C1294      H1302   1.085       .  S
C1303      C1304   1.398       .  A
C1303      C1308   1.403       .  A
C1303      H1319   1.084       .  S
C1304      C1305   1.404       .  A
C1304      H1320   1.084       .  S
C1305      C1315   1.400       .  A
C1305      C1306   1.410       .  A
C1306      C1312   1.412       .  A
C1306      C1307   1.410       .  A
C1307      C1309   1.411       .  A
C1307      C1308   1.413       .  A
C1308      C1316   1.402       .  A
C1309      C1318   1.400       .  A
C1309      C1310   1.403       .  A
C1310      C1311   1.398       .  A
C1310      H1321   1.084       .  S
C1311      C1312   1.403       .  A
C1311      H1322   1.084       .  S
C1312      C1313   1.402       .  A
C1313      C1314   1.406       .  A
C1313      H1323   1.083       .  S
C1314      C1315   1.407       .  A
C1315      H1324   1.084       .  S
C1316      C1317   1.404   1_655  A
C1316      H1325   1.084   1_655  S
C1317      C1318   1.405   1_455  A
C1318      H1326   1.085       .  S
C1327      C1328   1.402       .  A
C1327      C1332   1.404   1_556  A
C1327      H1343   1.083       .  S
C1328      C1329   1.405       .  A
C1328      H1344   1.084       .  S
C1329      C1339   1.405       .  A
C1329      C1330   1.410       .  A
C1330      C1336   1.415       .  A
C1330      C1331   1.417   1_556  A
C1331      C1333   1.409       .  A
C1331      C1332   1.414       .  A
C1332      C1340   1.411       .  A
C1333      C1342   1.405       .  A
C1333      C1334   1.405       .  A
C1334      C1335   1.402       .  A
C1334      H1345   1.083       .  S
C1335      C1336   1.404   1_554  A
C1335      H1346   1.084   1_655  S
C1336      C1337   1.411   1_655  A
C1337      C1338   1.406   1_455  A
C1337      H1347   1.084       .  S
C1338      C1339   1.407       .  A
C1339      H1348   1.085       .  S
C1340      C1341   1.407       .  A
C1340      H1349   1.083       .  S
C1341      C1342   1.411       .  A
C1342      H1350   1.084       .  S
C1351      C1352   1.398       .  A
C1351      C1356   1.403       .  A
C1351      H1367   1.084       .  S
C1352      C1353   1.403       .  A
C1352      H1368   1.084       .  S
C1353      C1363   1.402       .  A
C1353      C1354   1.412       .  A
C1354      C1360   1.412       .  A
C1354      C1355   1.413       .  A
C1355      C1357   1.412       .  A
C1355      C1356   1.411       .  A
C1356      C1364   1.402       .  A
C1357      C1366   1.407   1_655  A
C1357      C1358   1.404   1_655  A
C1358      C1359   1.402   1_455  A
C1358      H1369   1.083       .  S
C1359      C1360   1.404       .  A
C1359      H1370   1.084   1_655  S
C1360      C1361   1.407       .  A
C1361      C1362   1.405       .  A
C1361      H1371   1.084       .  S
C1362      C1363   1.402       .  A
C1363      H1372   1.085       .  S
C1364      C1365   1.406       .  A
C1364      H1373   1.084       .  S
C1365      C1366   1.407   1_655  A
C1366      H1374   1.084       .  S
C1375      C1380   1.404   1_554  A
C1375      H1391   1.083   1_655  S
C1376      H1392   1.084       .  S
C1377      C1378   1.409       .  A
C1378      C1384   1.416       .  A
C1378      C1379   1.420       .  A
C1379      C1381   1.409   1_554  A
C1379      C1380   1.415   1_554  A
C1380      C1388   1.413       .  A
C1381      C1390   1.408       .  A
C1381      C1382   1.406       .  A
C1382      C1383   1.403   1_556  A
C1382      H1393   1.083       .  S
C1383      C1384   1.404       .  A
C1383      H1394   1.083       .  S
C1384      C1385   1.415       .  A
C1385      H1395   1.083       .  S
C1386      C1387   1.409       .  A
C1387      H1396   1.084       .  S
C1388      C1389   1.408       .  A
C1388      H1397   1.084   1_655  S
C1389      C1390   1.412       .  A
C1390      H1398   1.084       .  S
C1399      C1400   1.397       .  A
C1399      C1404   1.403       .  A
C1399      H1415   1.084       .  S
C1400      C1401   1.403       .  A
C1400      H1416   1.083       .  S
C1401      C1411   1.399       .  A
C1401      C1402   1.410       .  A
C1402      C1408   1.412       .  A
C1402      C1403   1.412       .  A
C1403      C1405   1.411       .  A
C1403      C1404   1.412       .  A
C1404      C1412   1.402       .  A
C1405      C1414   1.405       .  A
C1405      C1406   1.405       .  A
C1406      C1407   1.401       .  A
C1406      H1417   1.084       .  S
C1407      C1408   1.404       .  A
C1407      H1418   1.083       .  S
C1408      C1409   1.406       .  A
C1409      C1410   1.406       .  A
C1409      H1419   1.081       .  S
C1410      C1411   1.405       .  A
C1411      H1420   1.084       .  S
C1412      C1413   1.405       .  A
C1412      H1421   1.084       .  S
C1413      C1414   1.410       .  A
C1414      H1422   1.084       .  S
C1423      C1424   1.400       .  A
C1423      C1428   1.404       .  A
C1424      C1425   1.404   1_554  A
C1424      H1440   1.083   1_554  S
C1425      C1435   1.406       .  A
C1425      C1426   1.412   1_556  A
C1426      C1432   1.412   1_554  A
C1426      C1427   1.416       .  A
C1427      C1429   1.413       .  A
C1427      C1428   1.412       .  A
C1429      C1438   1.409       .  A
C1429      C1430   1.404       .  A
C1430      C1431   1.402       .  A
C1430      H1441   1.084       .  S
C1431      C1432   1.405   1_554  A
C1431      H1442   1.083       .  S
C1432      C1433   1.408       .  A
C1433      C1434   1.406       .  A
C1433      H1443   1.084       .  S
C1434      C1435   1.405       .  A
C1435      H1444   1.085       .  S
C1436      C1437   1.406       .  A
C1436      H1445   1.084       .  S
C1438      H1446   1.084       .  S
C1447      C1448   1.401       .  A
C1447      C1452   1.405       .  A
C1447      H1463   1.084       .  S
C1448      C1449   1.404       .  A
C1448      H1464   1.083       .  S
C1449      C1459   1.404       .  A
C1449      C1450   1.412       .  A
C1450      C1456   1.412       .  A
C1450      C1451   1.412       .  A
C1451      C1453   1.411       .  A
C1451      C1452   1.412       .  A
C1452      C1460   1.406       .  A
C1453      C1462   1.402       .  A
C1453      C1454   1.403       .  A
C1454      C1455   1.398       .  A
C1454      H1465   1.084       .  S
C1455      C1456   1.402       .  A
C1455      H1466   1.084       .  S
C1456      C1457   1.401       .  A
C1457      C1458   1.401       .  A
C1457      H1467   1.085       .  S
C1458      C1459   1.404       .  A
C1459      H1468   1.084       .  S
C1460      C1461   1.410       .  A
C1460      H1469   1.084       .  S
C1461      C1462   1.407       .  A
C1462      H1470   1.084       .  S
C1471      C1472   1.400   1_554  A
C1471      C1476   1.405       .  A
C1471      H1487   1.084       .  S
C1472      C1473   1.403       .  A
C1472      H1488   1.084       .  S
C1473      C1483   1.407       .  A
C1473      C1474   1.413       .  A
C1474      C1480   1.410       .  A
C1474      C1475   1.417       .  A
C1475      C1477   1.415       .  A
C1475      C1476   1.408   1_556  A
C1476      C1484   1.403       .  A
C1477      C1486   1.414   1_556  A
C1477      C1478   1.405       .  A
C1478      C1479   1.404       .  A
C1478      H1489   1.083       .  S
C1479      C1480   1.406       .  A
C1479      H1490   1.084       .  S
C1480      C1481   1.409       .  A
C1481      C1482   1.412       .  A
C1481      H1491   1.084       .  S
C1482      C1483   1.408       .  A
C1483      H1492   1.084       .  S
C1484      C1485   1.411       .  A
C1484      H1493   1.084       .  S
C1485      C1486   1.408       .  A
C1486      H1494   1.081       .  S
C1495      C1496   1.404       .  A
C1495      H1511   1.083       .  S
C1496      C1497   1.406       .  A
C1496      H1512   1.083       .  S
C1497      C1507   1.412       .  A
C1498      C1504   1.409       .  A
C1498      C1499   1.420       .  A
C1499      C1501   1.413       .  A
C1499      C1500   1.410       .  A
C1500      C1508   1.412       .  A
C1501      C1510   1.409       .  A
C1501      C1502   1.403       .  A
C1502      C1503   1.400       .  A
C1502      H1513   1.083       .  S
C1503      C1504   1.404       .  A
C1503      H1514   1.084       .  S
C1504      C1505   1.404       .  A
C1505      H1515   1.085       .  S
C1506      C1507   1.410       .  A
C1507      H1516   1.084       .  S
C1508      C1509   1.410       .  A
C1508      H1517   1.084       .  S
C1509      C1510   1.405       .  A
C1510      H1518   1.084       .  S
C1519      C1520   1.401       .  A
C1519      C1524   1.405       .  A
C1519      H1535   1.083       .  S
C1520      C1521   1.404       .  A
C1520      H1536   1.083       .  S
C1521      C1531   1.411       .  A
C1521      C1522   1.414       .  A
C1522      C1528   1.408       .  A
C1522      C1523   1.415       .  A
C1523      C1525   1.414       .  A
C1523      C1524   1.410       .  A
C1524      C1532   1.404       .  A
C1525      C1534   1.406       .  A
C1525      C1526   1.403       .  A
C1526      C1527   1.399       .  A
C1526      H1537   1.084       .  S
C1527      C1528   1.405       .  A
C1527      H1538   1.084       .  S
C1528      C1529   1.401       .  A
C1529      C1530   1.411       .  A
C1529      H1539   1.085       .  S
C1530      C1531   1.407       .  A
C1531      H1540   1.083       .  S
C1532      C1533   1.408       .  A
C1532      H1541   1.084       .  S
C1533      C1534   1.405       .  A
C1534      H1542   1.084       .  S
C1543      C1544   1.404       .  A
C1543      C1548   1.406       .  A
C1543      H1559   1.083       .  S
C1544      C1545   1.405       .  A
C1544      H1560   1.083       .  S
C1545      C1555   1.410       .  A
C1545      C1546   1.412       .  A
C1546      C1552   1.413       .  A
C1546      C1547   1.417       .  A
C1547      C1549   1.409       .  A
C1547      C1548   1.413       .  A
C1548      C1556   1.413       .  A
C1549      C1558   1.403       .  A
C1549      C1550   1.404       .  A
C1550      C1551   1.399       .  A
C1550      H1561   1.084       .  S
C1551      C1552   1.403       .  A
C1551      H1562   1.083       .  S
C1552      C1553   1.406       .  A
C1553      C1554   1.403       .  A
C1553      H1563   1.084       .  S
C1554      C1555   1.407       .  A
C1555      H1564   1.084       .  S
C1556      C1557   1.411       .  A
C1556      H1565   1.084       .  S
C1557      C1558   1.411       .  A
C1558      H1566   1.084       .  S
C1567      C1568   1.403       .  A
C1567      C1572   1.405       .  A
C1567      H1583   1.083       .  S
C1568      C1569   1.406       .  A
C1568      H1584   1.084       .  S
C1569      C1579   1.409       .  A
C1569      C1570   1.411       .  A
C1570      C1576   1.412       .  A
C1570      C1571   1.417       .  A
C1571      C1573   1.411       .  A
C1571      C1572   1.413       .  A
C1572      C1580   1.411       .  A
C1573      C1582   1.405       .  A
C1573      C1574   1.404       .  A
C1574      C1575   1.400       .  A
C1574      H1585   1.084       .  S
C1575      C1576   1.404       .  A
C1575      H1586   1.083       .  S
C1576      C1577   1.407       .  A
C1577      C1578   1.408       .  A
C1577      H1587   1.084       .  S
C1578      C1579   1.411       .  A
C1579      H1588   1.084       .  S
C1580      C1581   1.406       .  A
C1580      H1589   1.084       .  S
C1581      C1582   1.406       .  A
C1582      H1590   1.085       .  S
C1591      C1592   1.400       .  A
C1591      C1596   1.403       .  A
C1592      C1593   1.405       .  A
C1592      H1608   1.083       .  S
C1593      C1603   1.404       .  A
C1593      C1594   1.411       .  A
C1594      C1600   1.412       .  A
C1594      C1595   1.410       .  A
C1595      C1597   1.410       .  A
C1595      C1596   1.412       .  A
C1597      C1606   1.398       .  A
C1597      C1598   1.403       .  A
C1598      C1599   1.397       .  A
C1598      H1609   1.084       .  S
C1599      C1600   1.403       .  A
C1599      H1610   1.084       .  S
C1600      C1601   1.401       .  A
C1601      C1602   1.405       .  A
C1601      H1611   1.084       .  S
C1602      C1603   1.407       .  A
C1603      H1612   1.084       .  S
C1604      H1613   1.084       .  S
C1605      C1606   1.406       .  A
C1606      H1614   1.085       .  S
C1615      C1616   1.404       .  A
C1615      C1620   1.405       .  A
C1615      H1631   1.084       .  S
C1616      C1617   1.406       .  A
C1616      H1632   1.083       .  S
C1617      C1627   1.409       .  A
C1617      C1618   1.411       .  A
C1618      C1624   1.412       .  A
C1618      C1619   1.411       .  A
C1619      C1621   1.409       .  A
C1619      C1620   1.413       .  A
C1620      C1628   1.411       .  A
C1621      C1630   1.394       .  A
C1621      C1622   1.402       .  A
C1622      C1623   1.394       .  A
C1622      H1633   1.084       .  S
C1623      C1624   1.401       .  A
C1623      H1634   1.084       .  S
C1624      C1625   1.396       .  A
C1625      C1626   1.400       .  A
C1625      H1635   1.084       .  S
C1626      C1627   1.409       .  A
C1627      H1636   1.084       .  S
C1628      C1629   1.409       .  A
C1628      H1637   1.084       .  S
C1629      C1630   1.407       .  A
C1630      H1638   1.085       .  S
C1639      C1640   1.399       .  A
C1639      C1644   1.404       .  A
C1639      H1655   1.083   1_554  S
C1640      C1641   1.403       .  A
C1640      H1656   1.083   1_554  S
C1641      C1651   1.403       .  A
C1642      C1648   1.412       .  A
C1643      C1644   1.412       .  A
C1644      C1652   1.406       .  A
C1645      C1654   1.405       .  A
C1645      C1646   1.404       .  A
C1646      C1647   1.401       .  A
C1646      H1657   1.084       .  S
C1647      C1648   1.405       .  A
C1647      H1658   1.083       .  S
C1648      C1649   1.407       .  A
C1649      C1650   1.408       .  A
C1649      H1659   1.083       .  S
C1651      H1660   1.085       .  S
C1652      C1653   1.406       .  A
C1652      H1661   1.085   1_554  S
C1654      H1662   1.085       .  S
C1663      C1664   1.401       .  A
C1663      C1668   1.405       .  A
C1663      H1679   1.084       .  S
C1664      C1665   1.404       .  A
C1664      H1680   1.084       .  S
C1665      C1675   1.410       .  A
C1665      C1666   1.414       .  A
C1666      C1672   1.409       .  A
C1666      C1667   1.418       .  A
C1667      C1669   1.415       .  A
C1667      C1668   1.408       .  A
C1668      C1676   1.404       .  A
C1669      C1678   1.414       .  A
C1669      C1670   1.404       .  A
C1670      C1671   1.403       .  A
C1670      H1681   1.083   1_565  S
C1671      C1672   1.405       .  A
C1672      C1673   1.408       .  A
C1673      C1674   1.412       .  A
C1674      C1675   1.408       .  A
C1675      H1684   1.083       .  S
C1676      C1677   1.413       .  A
C1676      H1685   1.084       .  S
C1677      C1678   1.408       .  A
C1678      H1686   1.084   1_565  S
C1687      C1688   1.400       .  A
C1687      C1692   1.404       .  A
C1687      H1703   1.084       .  S
C1688      C1689   1.405       .  A
C1688      H1704   1.083       .  S
C1689      C1699   1.401       .  A
C1689      C1690   1.409       .  A
C1690      C1696   1.414       .  A
C1690      C1691   1.413       .  A
C1691      C1693   1.408       .  A
C1691      C1692   1.414       .  A
C1692      C1700   1.408       .  A
C1693      C1702   1.401       .  A
C1693      C1694   1.404       .  A
C1694      C1695   1.399       .  A
C1694      H1705   1.083       .  S
C1695      C1696   1.402       .  A
C1695      H1706   1.084       .  S
C1696      C1697   1.405       .  A
C1697      C1698   1.403       .  A
C1697      H1707   1.084       .  S
C1698      C1699   1.409       .  A
C1699      H1708   1.085       .  S
C1700      C1701   1.408       .  A
C1700      H1709   1.084       .  S
C1701      C1702   1.410       .  A
C1702      H1710   1.084   1_565  S
C1711      C1712   1.401       .  A
C1711      C1716   1.404       .  A
C1711      H1727   1.083       .  S
C1712      C1713   1.405       .  A
C1712      H1728   1.083       .  S
C1713      C1723   1.404       .  A
C1713      C1714   1.410       .  A
C1714      C1720   1.413       .  A
C1714      C1715   1.414       .  A
C1715      C1717   1.410       .  A
C1715      C1716   1.413       .  A
C1716      C1724   1.407       .  A
C1717      C1726   1.402       .  A
C1717      C1718   1.404       .  A
C1718      C1719   1.399       .  A
C1718      H1729   1.084       .  S
C1719      C1720   1.403       .  A
C1719      H1730   1.084       .  S
C1720      C1721   1.405       .  A
C1721      C1722   1.405       .  A
C1721      H1731   1.084       .  S
C1722      C1723   1.409       .  A
C1723      H1732   1.084       .  S
C1724      C1725   1.407       .  A
C1724      H1733   1.084       .  S
C1725      C1726   1.407       .  A
C1726      H1734   1.085       .  S
C1735      C1736   1.396       .  A
C1735      C1740   1.403       .  A
C1735      H1751   1.084       .  S
C1736      C1737   1.402       .  A
C1736      H1752   1.084       .  S
C1737      C1747   1.397       .  A
C1737      C1738   1.412       .  A
C1738      C1744   1.413       .  A
C1738      C1739   1.408       .  A
C1739      C1741   1.413       .  A
C1739      C1740   1.411       .  A
C1740      C1748   1.397       .  A
C1741      C1750   1.402       .  A
C1741      C1742   1.403       .  A
C1742      C1743   1.399       .  A
C1742      H1753   1.083       .  S
C1743      C1744   1.403       .  A
C1743      H1754   1.084       .  S
C1744      C1745   1.403       .  A
C1745      C1746   1.402       .  A
C1745      H1755   1.085   1_565  S
C1746      C1747   1.401       .  A
C1747      H1756   1.085       .  S
C1748      C1749   1.402       .  A
C1749      C1750   1.402       .  A
C1750      H1758   1.083       .  S
C1759      C1760   1.401       .  A
C1759      C1764   1.404       .  A
C1759      H1775   1.083       .  S
C1760      C1761   1.405       .  A
C1760      H1776   1.084       .  S
C1761      C1771   1.404       .  A
C1761      C1762   1.410       .  A
C1762      C1768   1.414       .  A
C1762      C1763   1.416       .  A
C1763      C1765   1.411       .  A
C1763      C1764   1.414       .  A
C1764      C1772   1.408       .  A
C1765      C1774   1.405       .  A
C1765      C1766   1.405       .  A
C1766      C1767   1.401       .  A
C1766      H1777   1.084       .  S
C1767      C1768   1.404       .  A
C1767      H1778   1.083       .  S
C1768      C1769   1.409       .  A
C1769      C1770   1.405       .  A
C1769      H1779   1.083       .  S
C1770      C1771   1.408       .  A
C1771      H1780   1.084       .  S
C1772      C1773   1.406       .  A
C1772      H1781   1.084       .  S
C1773      C1774   1.409       .  A
C1774      H1782   1.085       .  S
