geometry optimzed in LAMMPS
_audit_creation_date              2020-11-30 
_audit_creation_method            'lammps2cif' 
_symmetry_space_group_name_H-M    'P1' 
_symmetry_Int_Tables_number       1 
_symmetry_cell_setting            triclinic 
loop_ 
_symmetry_equiv_pos_as_xyz 
  x,y,z 
_cell_length_a                    35.038509324269974 
_cell_length_b                    36.89307236643136 
_cell_length_c                    36.218368811447256 
_cell_angle_alpha                 90.08173577881777 
_cell_angle_beta                  89.83358122391768 
_cell_angle_gamma                 89.85765620703583 
loop_ 
_atom_site_label 
_atom_site_type_symbol 
_atom_site_fract_x 
_atom_site_fract_y 
_atom_site_fract_z 
_atom_site_charge 
O1          O  0.22523717  0.29537698  0.31500184    -0.70960
O2          O  0.27127465  0.20757404  0.31850143    -0.71180
O3          O  0.20186070  0.22984884  0.31695741    -0.71040
O4          O  0.29476587  0.27362339  0.31662665    -0.71050
O5          O  0.28298779  0.29733926  0.36792136    -0.71010
O6          O  0.21193145  0.20916329  0.36971751    -0.71030
O7          O  0.29411447  0.22001678  0.37007951    -0.70970
O8          O  0.20122265  0.28686732  0.36730901    -0.71160
V9          V  0.24832198  0.25161391  0.31728841     1.35240
V10         V  0.24751046  0.25336071  0.37108296     1.35170
C11         C  0.19955341  0.30430378  0.33630658     0.78270
C12         C  0.29656084  0.20012655  0.34059845     0.78330
C13         C  0.19254431  0.20641185  0.33932538     0.78200
C14         C  0.30319803  0.29838092  0.33786309     0.78160
O15         O  0.32792426  0.29612573  0.26050301    -0.70960
O16         O  0.33056777  0.20599266  0.21985196    -0.71180
O17         O  0.32931113  0.23108039  0.28621891    -0.71040
O18         O  0.32911108  0.27104908  0.19409469    -0.71050
O19         O  0.38234226  0.29461160  0.20374311    -0.71010
O20         O  0.38363549  0.20954343  0.27701164    -0.71030
O21         O  0.38404814  0.21663005  0.19712204    -0.70970
O22         O  0.38187061  0.28795201  0.28344781    -0.71160
V23         V  0.32976710  0.25108459  0.24015972     1.35240
V24         V  0.38534503  0.25219705  0.24038600     1.35170
C25         C  0.35008115  0.30603884  0.28477268     0.78270
C26         C  0.35331973  0.19716277  0.19551431     0.78330
C27         C  0.35220354  0.20768274  0.29608802     0.78200
C28         C  0.35122081  0.29513147  0.18434447     0.78160
O29         O  0.21027951  0.37743078  0.28026920    -0.70960
O30         O  0.28325448  0.37581122  0.19181943    -0.71180
O31         O  0.20144172  0.37493332  0.20098273    -0.71040
O32         O  0.29248565  0.37811978  0.27123906    -0.71050
O33         O  0.26962471  0.32719114  0.28308310    -0.71010
O34         O  0.22558280  0.32353774  0.19269602    -0.71030
O35         O  0.29454656  0.32543488  0.21599464    -0.70970
O36         O  0.20095119  0.32543341  0.25904408    -0.71040
V37         V  0.24684203  0.37881821  0.23604600     1.35240
V38         V  0.24774725  0.32594072  0.23769918     1.35170
C39         C  0.19116349  0.34744974  0.28272459     0.78270
C40         C  0.30326984  0.34621417  0.19080953     0.78330
C41         C  0.20017529  0.34446773  0.18312616     0.78200
C42         C  0.29441912  0.34914561  0.29146132     0.78160
O43         O  0.16791933  0.27080152  0.28384835    -0.70960
O44         O  0.16998056  0.22631218  0.19421556    -0.71180
O45         O  0.16820705  0.29271627  0.21664574    -0.71040
O46         O  0.16970849  0.20486722  0.26130332    -0.71050
O47         O  0.11593730  0.21558864  0.28361692    -0.71010
O48         O  0.11561532  0.28028953  0.19295436    -0.71030
O49         O  0.11674270  0.20305344  0.20493198    -0.70970
O50         O  0.11453992  0.29261780  0.27163942    -0.71160
V51         V  0.16860359  0.24870163  0.23892725     1.35240
V52         V  0.11318838  0.24783799  0.23829224     1.35170
C53         C  0.14513672  0.29505429  0.29162775     0.78270
C54         C  0.14824687  0.20141322  0.18611642     0.78330
C55         C  0.14603256  0.30015880  0.19155178     0.78200
C56         C  0.14712485  0.19675824  0.28584231     0.78160
O57         O  0.27359200  0.17355573  0.19687617    -0.70960
O58         O  0.22766894  0.17513013  0.28653672    -0.71180
O59         O  0.29710628  0.17576740  0.26379552    -0.71040
O60         O  0.20434579  0.17283402  0.21986458    -0.71050
O61         O  0.21676639  0.12152175  0.19848868    -0.71010
O62         O  0.28742650  0.12492617  0.28768271    -0.71030
O63         O  0.20546623  0.12332405  0.27744414    -0.70970
O64         O  0.29824429  0.12314358  0.20851685    -0.71160
V65         V  0.25074153  0.17381153  0.24178225     1.35240
V66         V  0.25202275  0.12096174  0.24313579     1.35170
C67         C  0.29941598  0.15240199  0.18872490     0.78270
C68         C  0.20254669  0.15366747  0.29539614     0.78330
C69         C  0.30633477  0.15506639  0.28881416     0.78200
C70         C  0.19598015  0.15054694  0.19608387     0.78160
O71         O  0.21272957  0.28912013  0.10861725    -0.70960
O72         O  0.28713932  0.20326472  0.11178318    -0.71180
O73         O  0.20514708  0.21069973  0.11110201    -0.71040
O74         O  0.29494524  0.28061647  0.10966445    -0.71050
O75         O  0.27077729  0.29257152  0.16088479    -0.71010
O76         O  0.22841000  0.20303231  0.16362105    -0.71030
O77         O  0.29674141  0.22741912  0.16329185    -0.70970
O78         O  0.20220801  0.26825958  0.16118748    -0.71160
V79         V  0.24993947  0.24590826  0.10797171     1.35240
V80         V  0.24949152  0.24780105  0.16174810     1.35170
C81         C  0.19275755  0.29161071  0.13877802     0.78270
C82         C  0.30664579  0.20299491  0.14216743     0.78330
C83         C  0.20369647  0.19292979  0.14195577     0.78200
C84         C  0.29618826  0.30068344  0.13904790     0.78160
C85         C  0.32693953  0.32908988  0.31584780    -0.01670
C86         C  0.42304089  0.42015840  0.41379331    -0.01670
C87         C  0.32969479  0.17696078  0.31999547    -0.01670
C88         C  0.42088057  0.07230998  0.40772495    -0.01670
C89         C  0.16720247  0.32674436  0.31432646    -0.01670
C90         C  0.08284442  0.42260113  0.41600738    -0.01670
C91         C  0.32817710  0.32480560  0.15988118    -0.01670
C92         C  0.42147919  0.42609348  0.07003853    -0.01670
C93         C  0.16925699  0.17484101  0.31789576    -0.01670
C94         C  0.08083969  0.07391020  0.41053428    -0.01670
C95         C  0.16822397  0.32276888  0.15995636    -0.01670
C96         C  0.08179850  0.42801802  0.06997523    -0.01670
C97         C  0.33132613  0.17329718  0.16438733    -0.01670
C98         C  0.41866676  0.07773916  0.06356072    -0.01670
C99         C  0.17156303  0.17024698  0.16410762    -0.01670
C100        C  0.07845952  0.08044293  0.06427673    -0.01670
O101        O  0.13373118  0.04442231  0.45514910    -0.70960
O102        O  0.13494364  0.45979685  0.02654893    -0.71180
O103        O  0.13540924  0.46675138  0.44741041    -0.71040
O104        O  0.13336957  0.03808701  0.03406527    -0.71050
O105        O  0.07990781  0.04664024  0.01004489    -0.71010
O106        O  0.08231392  0.45574073  0.47094548    -0.71030
O107        O  0.08124652  0.48209572  0.03676979    -0.70970
O108        O  0.08106397  0.02030129  0.44443650    -0.71160
V109        V  0.13688345  0.00226360  0.49085448     1.35240
V110        V  0.08146044  0.50120243  0.49057411     1.35170
C111        C  0.10314115  0.04445961  0.43518256     0.78270
C112        C  0.10392237  0.45839891  0.04605027     0.78330
C113        C  0.10492081  0.44683562  0.44657289     0.78200
C114        C  0.10186816  0.05667905  0.03438371     0.78160
O115        O  0.45348730  0.12484440  0.44837089    -0.70960
O116        O  0.04330901  0.12883140  0.01942036    -0.71180
O117        O  0.03555848  0.12538244  0.44069293    -0.71040
O118        O  0.46122812  0.12827187  0.02799612    -0.71050
O119        O  0.45200854  0.07606269  0.00765141    -0.71010
O120        O  0.04601538  0.07513620  0.46552400    -0.71030
O121        O  0.02079232  0.07811729  0.03192729    -0.70970
O122        O  0.47751633  0.07323611  0.44126389    -0.71160
V123        V  0.49826759  0.12904591  0.48405710     1.35240
V124        V  0.99905876  0.07619715  0.48656405     1.35170
C125        C  0.45250942  0.09421757  0.43081417     0.78270
C126        C  0.04562379  0.10017356  0.03993912     0.78330
C127        C  0.05565253  0.09580320  0.44061897     0.78200
C128        C  0.44220559  0.09826781  0.03114604     0.78160
O129        O  0.03502447  0.04935949  0.11699565    -0.70960
O130        O  0.46518795  0.46115568  0.12028461    -0.71180
O131        O  0.04687347  0.47175889  0.12027976    -0.71040
O132        O  0.45350050  0.03892081  0.11710185    -0.71050
O133        O  0.47675635  0.04675018  0.06443071    -0.71010
O134        O  0.02317480  0.45875717  0.06914896    -0.71030
O135        O  0.45348248  0.48137993  0.06778258    -0.70970
O136        O  0.04602473  0.02503900  0.06574214    -0.71160
V137        V  0.00004932  0.00539169  0.12100733     1.35240
V138        V  0.49998301  0.50293665  0.06726424     1.35170
C139        C  0.05446615  0.05013897  0.08654049     0.78270
C140        C  0.44497260  0.45808378  0.09046778     0.78330
C141        C  0.04892455  0.45153630  0.09099323     0.78200
C142        C  0.45140830  0.05611278  0.08590280     0.78160
O143        O  0.42055153  0.04247205  0.46516509    -0.70960
O144        O  0.42151358  0.45544886  0.01255165    -0.71180
O145        O  0.42238987  0.47604313  0.44462327    -0.71040
O146        O  0.41991343  0.02172160  0.03340953    -0.71050
O147        O  0.36625690  0.04324457  0.02129362    -0.71010
O148        O  0.36870299  0.45342737  0.45503346    -0.71030
O149        O  0.36728031  0.46569929  0.03430014    -0.70970
O150        O  0.36734715  0.03083984  0.44224194    -0.71160
V151        V  0.42056599  0.99895886  0.48891663     1.35240
V152        V  0.36499237  0.49823768  0.48821887     1.35170
C153        C  0.39835638  0.04991210  0.43993321     0.78270
C154        C  0.39892050  0.44751805  0.03733926     0.78330
C155        C  0.40030575  0.45153071  0.43632415     0.78200
C156        C  0.39696305  0.04581146  0.04109644     0.78160
O157        O  0.02325850  0.04185658  0.41052695    -0.70960
O158        O  0.48009192  0.45241719  0.41361578    -0.71180
O159        O  0.04841532  0.47667380  0.41423545    -0.71040
O160        O  0.45416558  0.01743192  0.40999129    -0.71050
O161        O  0.46655268  0.03808254  0.35787643    -0.71010
O162        O  0.04008510  0.45251423  0.36249083    -0.71030
O163        O  0.45777755  0.45995883  0.36070199    -0.70970
O164        O  0.04851657  0.02994036  0.35957293    -0.71160
V165        V  0.00151690  0.99714648  0.41159706     1.35240
V166        V  0.50317096  0.49498753  0.35783947     1.35170
C167        C  0.04923787  0.04981012  0.38911216     0.78270
C168        C  0.45552240  0.44248075  0.39174667     0.78330
C169        C  0.05879204  0.45230596  0.39331518     0.78200
C170        C  0.44559015  0.04077813  0.38734271     0.78160
O171        O  0.02463967  0.42321697  0.44770673    -0.70960
O172        O  0.47907302  0.42615790  0.03757023    -0.71180
O173        O  0.04788017  0.42674410  0.01459046    -0.71040
O174        O  0.45505838  0.42255551  0.47056391    -0.71050
O175        O  0.46713628  0.37096645  0.45017566    -0.71010
O176        O  0.03925673  0.37572451  0.03854167    -0.71030
O177        O  0.45719089  0.37403223  0.02982353    -0.70970
O178        O  0.04904860  0.37281256  0.45974642    -0.71160
V179        V  0.00164918  0.42406731  0.49256716     1.35240
V180        V  0.50309883  0.37118632  0.49468593     1.35170
C181        C  0.05050543  0.40197367  0.43989223     0.78270
C182        C  0.45452754  0.40456474  0.04756141     0.78330
C183        C  0.05792777  0.40602185  0.03928515     0.78200
C184        C  0.44674816  0.40018586  0.44671743     0.78160
C185        C  0.10696045  0.14192665  0.08463007     0.24410
C186        C  0.10329447  0.10403369  0.08919229    -0.23700
C187        C  0.12284685  0.08777721  0.11881778     0.19320
C188        C  0.14313160  0.10865420  0.14421458     0.24350
C189        C  0.14689043  0.14649968  0.13943012    -0.23640
C190        C  0.12770512  0.16270345  0.10971056     0.19250
F191        F  0.12910358  0.19913689  0.10459309    -0.13600
F192        F  0.09252908  0.15953752  0.05514623    -0.15960
F193        F  0.15745823  0.09122166  0.17397072    -0.15960
F194        F  0.12197912  0.05130842  0.12384024    -0.13600
C195        C  0.35609521  0.09669862  0.09636482     0.24410
C196        C  0.39518502  0.10239508  0.08884585    -0.23700
C197        C  0.41341864  0.13143436  0.10678440     0.19320
C198        C  0.39332850  0.15458353  0.13052165     0.24350
C199        C  0.35440830  0.14860645  0.13860650    -0.23640
C200        C  0.33598597  0.11987519  0.12009265     0.19250
F201        F  0.29806530  0.11387037  0.12480411    -0.13600
F202        F  0.33690853  0.06810321  0.08217477    -0.15960
F203        F  0.41230504  0.18356964  0.14392835    -0.15960
F204        F  0.45124104  0.13754393  0.10155587    -0.13600
C205        C  0.16438393  0.37158018  0.11159912     0.24410
C206        C  0.14479587  0.34847264  0.13588825    -0.23700
C207        C  0.10472264  0.35267885  0.13891702     0.19320
C208        C  0.08532170  0.37850899  0.11784978     0.24350
C209        C  0.10504146  0.40226874  0.09424923    -0.23640
C210        C  0.14522714  0.39859942  0.09196044     0.19250
F211        F  0.16702277  0.42047645  0.07085305    -0.13600
F212        F  0.20287214  0.36891206  0.10770806    -0.15960
F213        F  0.04670481  0.38032352  0.12083693    -0.15960
F214        F  0.08339330  0.33249995  0.16222092    -0.13600
C215        C  0.10511224  0.14758400  0.34088798     0.24410
C216        C  0.14549370  0.14973016  0.34221267    -0.23700
C217        C  0.16478471  0.12581660  0.36584107     0.19320
C218        C  0.14500906  0.09978627  0.38615039     0.24350
C219        C  0.10458153  0.09873480  0.38599761    -0.23640
C220        C  0.08524453  0.12311451  0.36298193     0.19250
F221        F  0.04650203  0.12302712  0.36134691    -0.13600
F222        F  0.08364865  0.16875499  0.31877341    -0.15960
F223        F  0.16650405  0.07571942  0.40498529    -0.15960
F224        F  0.20346190  0.12662010  0.36836023    -0.13600
C225        C  0.35362498  0.34919997  0.09677508     0.24410
C226        C  0.35288633  0.35006331  0.13595688    -0.23700
C227        C  0.37489521  0.37684948  0.15349325     0.19320
C228        C  0.39529576  0.40263749  0.13309303     0.24350
C229        C  0.39673850  0.40110563  0.09399565    -0.23640
C230        C  0.37540616  0.37393865  0.07648058     0.19250
F231        F  0.37538571  0.37126338  0.03906304    -0.13600
F232        F  0.33435272  0.32429386  0.07696147    -0.15960
F233        F  0.41279348  0.42904599  0.15254381    -0.15960
F234        F  0.37593309  0.37888473  0.19092943    -0.13600
C235        C  0.16481171  0.37298943  0.36585302     0.24410
C236        C  0.14475951  0.35193400  0.33979614    -0.23700
C237        C  0.10461767  0.35461171  0.33929585     0.19320
C238        C  0.08540220  0.37685712  0.36441457     0.24350
C239        C  0.10540690  0.39739334  0.39081390    -0.23640
C240        C  0.14550022  0.39440363  0.39169720     0.19250
F241        F  0.16667935  0.41134864  0.41766465    -0.13600
F242        F  0.20356049  0.37236126  0.36700797    -0.15960
F243        F  0.04669703  0.37825271  0.36276615    -0.15960
F244        F  0.08325175  0.33707567  0.31396297    -0.13600
C245        C  0.34790390  0.14592135  0.38202820     0.24410
C246        C  0.35390383  0.15127948  0.34370730    -0.23700
C247        C  0.38166447  0.12963201  0.32624705     0.19320
C248        C  0.40250109  0.10358269  0.34586334     0.24350
C249        C  0.39653451  0.09813861  0.38418095    -0.23640
C250        C  0.36943470  0.12051765  0.40183450     0.19250
F251        F  0.36347749  0.11791188  0.43880388    -0.13600
F252        F  0.32073617  0.16418721  0.40108589    -0.15960
F253        F  0.42913139  0.08495213  0.32661552    -0.15960
F254        F  0.38833432  0.13315304  0.28946717    -0.13600
C255        C  0.40896543  0.36103130  0.37861309     0.24410
C256        C  0.39802436  0.39654368  0.38862070    -0.23700
C257        C  0.36385743  0.41027066  0.37326966     0.19320
C258        C  0.34077253  0.38880968  0.35054133     0.24350
C259        C  0.35138518  0.35297023  0.34122167    -0.23640
C260        C  0.38521482  0.33914913  0.35692764     0.19250
F261        F  0.39564991  0.30411807  0.35160165    -0.13600
F262        F  0.44320347  0.34725898  0.38875081    -0.15960
F263        F  0.30716577  0.40324050  0.33925909    -0.15960
F264        F  0.35267048  0.44502818  0.37923487    -0.13600
O265        O  0.22523717  0.29537699  0.81500183    -0.70960
O266        O  0.27127464  0.20757404  0.81850143    -0.71180
O267        O  0.20186070  0.22984885  0.81695740    -0.71040
O268        O  0.29476586  0.27362339  0.81662665    -0.71050
O269        O  0.28298779  0.29733926  0.86792136    -0.71010
O270        O  0.21193144  0.20916330  0.86971751    -0.71030
O271        O  0.29411446  0.22001679  0.87007951    -0.70970
O272        O  0.20122265  0.28686733  0.86730901    -0.71160
V273        V  0.24832197  0.25161391  0.81728841     1.35240
V274        V  0.24751045  0.25336071  0.87108296     1.35170
C275        C  0.19955341  0.30430378  0.83630657     0.78270
C276        C  0.29656083  0.20012655  0.84059846     0.78330
C277        C  0.19254430  0.20641186  0.83932537     0.78200
C278        C  0.30319803  0.29838092  0.83786309     0.78160
O279        O  0.32792426  0.29612573  0.76050301    -0.70960
O280        O  0.33056777  0.20599266  0.71985197    -0.71180
O281        O  0.32931113  0.23108039  0.78621891    -0.71040
O282        O  0.32911109  0.27104907  0.69409469    -0.71050
O283        O  0.38234226  0.29461159  0.70374312    -0.71010
O284        O  0.38363549  0.20954342  0.77701165    -0.71030
O285        O  0.38404814  0.21663004  0.69712205    -0.70970
O286        O  0.38187061  0.28795200  0.78344782    -0.71160
V287        V  0.32976710  0.25108459  0.74015973     1.35240
V288        V  0.38534503  0.25219705  0.74038600     1.35170
C289        C  0.35008115  0.30603883  0.78477269     0.78270
C290        C  0.35331973  0.19716276  0.69551432     0.78330
C291        C  0.35220354  0.20768274  0.79608803     0.78200
C292        C  0.35122082  0.29513147  0.68434448     0.78160
O293        O  0.21027952  0.37743079  0.78026919    -0.70960
O294        O  0.28325449  0.37581122  0.69181942    -0.71180
O295        O  0.20144173  0.37493333  0.70098272    -0.71040
O296        O  0.29248566  0.37811978  0.77123905    -0.71050
O297        O  0.26962472  0.32719114  0.78308309    -0.71010
O298        O  0.22558281  0.32353775  0.69269601    -0.71030
O299        O  0.29454657  0.32543488  0.71599464    -0.70970
O300        O  0.20095119  0.32543341  0.75904407    -0.71040
V301        V  0.24684204  0.37881821  0.73604599     1.35240
V302        V  0.24774726  0.32594073  0.73769917     1.35170
C303        C  0.19116350  0.34744975  0.78272458     0.78270
C304        C  0.30326984  0.34621417  0.69080953     0.78330
C305        C  0.20017530  0.34446774  0.68312615     0.78200
C306        C  0.29441912  0.34914561  0.79146131     0.78160
O307        O  0.16791932  0.27080153  0.78384834    -0.70960
O308        O  0.16998056  0.22631219  0.69421555    -0.71180
O309        O  0.16820706  0.29271627  0.71664573    -0.71040
O310        O  0.16970848  0.20486722  0.76130331    -0.71050
O311        O  0.11593729  0.21558865  0.78361691    -0.71010
O312        O  0.11561533  0.28028954  0.69295435    -0.71030
O313        O  0.11674269  0.20305345  0.70493197    -0.70970
O314        O  0.11453992  0.29261782  0.77163941    -0.71160
V315        V  0.16860359  0.24870163  0.73892724     1.35240
V316        V  0.11318838  0.24783800  0.73829223     1.35170
C317        C  0.14513671  0.29505430  0.79162774     0.78270
C318        C  0.14824687  0.20141322  0.68611641     0.78330
C319        C  0.14603257  0.30015881  0.69155178     0.78200
C320        C  0.14712484  0.19675826  0.78584231     0.78160
O321        O  0.27359200  0.17355573  0.69687618    -0.70960
O322        O  0.22766893  0.17513014  0.78653672    -0.71180
O323        O  0.29710627  0.17576740  0.76379553    -0.71040
O324        O  0.20434579  0.17283402  0.71986458    -0.71050
O325        O  0.21676638  0.12152175  0.69848868    -0.71010
O326        O  0.28742649  0.12492618  0.78768272    -0.71030
O327        O  0.20546622  0.12332405  0.77744414    -0.70970
O328        O  0.29824428  0.12314358  0.70851686    -0.71160
V329        V  0.25074153  0.17381153  0.74178225     1.35240
V330        V  0.25202274  0.12096174  0.74313579     1.35170
C331        C  0.29941598  0.15240199  0.68872491     0.78270
C332        C  0.20254668  0.15366748  0.79539614     0.78330
C333        C  0.30633475  0.15506639  0.78881417     0.78200
C334        C  0.19598015  0.15054695  0.69608387     0.78160
O335        O  0.21272958  0.28912013  0.60861724    -0.70960
O336        O  0.28713932  0.20326472  0.61178318    -0.71180
O337        O  0.20514708  0.21069974  0.61110200    -0.71040
O338        O  0.29494525  0.28061646  0.60966445    -0.71050
O339        O  0.27077730  0.29257152  0.66088479    -0.71010
O340        O  0.22841000  0.20303231  0.66362104    -0.71030
O341        O  0.29674141  0.22741912  0.66329186    -0.70970
O342        O  0.20220802  0.26825958  0.66118748    -0.71160
V343        V  0.24993948  0.24590826  0.60797171     1.35240
V344        V  0.24949152  0.24780105  0.66174809     1.35170
C345        C  0.19275756  0.29161072  0.63877802     0.78270
C346        C  0.30664580  0.20299491  0.64216743     0.78330
C347        C  0.20369647  0.19292979  0.64195577     0.78200
C348        C  0.29618827  0.30068343  0.63904790     0.78160
C349        C  0.32693953  0.32908988  0.81584780    -0.01670
C350        C  0.42304089  0.42015841  0.91379331    -0.01670
C351        C  0.32969478  0.17696078  0.81999547    -0.01670
C352        C  0.42088057  0.07230997  0.90772494    -0.01670
C353        C  0.16720247  0.32674437  0.81432645    -0.01670
C354        C  0.08284443  0.42260113  0.91600738    -0.01670
C355        C  0.32817711  0.32480560  0.65988118    -0.01670
C356        C  0.42147920  0.42609348  0.57003854    -0.01670
C357        C  0.16925698  0.17484103  0.81789576    -0.01670
C358        C  0.08083968  0.07391021  0.91053428    -0.01670
C359        C  0.16822398  0.32276889  0.65995635    -0.01670
C360        C  0.08179851  0.42801803  0.56997522    -0.01670
C361        C  0.33132612  0.17329718  0.66438734    -0.01670
C362        C  0.41866677  0.07773916  0.56356073    -0.01670
C363        C  0.17156303  0.17024699  0.66410762    -0.01670
C364        C  0.07845953  0.08044292  0.56427674    -0.01670
O365        O  0.13373117  0.04442233  0.95514910    -0.70960
O366        O  0.13494364  0.45979686  0.52654892    -0.71180
O367        O  0.13540925  0.46675138  0.94741042    -0.71040
O368        O  0.13336958  0.03808699  0.53406528    -0.71050
O369        O  0.07990782  0.04664023  0.51004489    -0.71010
O370        O  0.08231393  0.45574073  0.97094549    -0.71030
O371        O  0.08124653  0.48209572  0.53676978    -0.70970
O372        O  0.08106397  0.02030130  0.94443649    -0.71160
V373        V  0.13688345  0.00226362  0.99085448     1.35240
V374        V  0.08146044  0.50120243  0.99057412     1.35170
C375        C  0.10314114  0.04445963  0.93518255     0.78270
C376        C  0.10392238  0.45839891  0.54605025     0.78330
C377        C  0.10492082  0.44683561  0.94657290     0.78200
C378        C  0.10186817  0.05667903  0.53438371     0.78160
O379        O  0.45348728  0.12484439  0.94837088    -0.70960
O380        O  0.04330903  0.12883140  0.51942037    -0.71180
O381        O  0.03555847  0.12538245  0.94069293    -0.71040
O382        O  0.46122814  0.12827187  0.52799613    -0.71050
O383        O  0.45200856  0.07606270  0.50765142    -0.71010
O384        O  0.04601538  0.07513621  0.96552399    -0.71030
O385        O  0.02079233  0.07811729  0.53192729    -0.70970
O386        O  0.47751632  0.07323610  0.94126389    -0.71160
V387        V  0.49826757  0.12904591  0.98405709     1.35240
V388        V  0.99905875  0.07619715  0.98656405     1.35170
C389        C  0.45250941  0.09421756  0.93081416     0.78270
C390        C  0.04562380  0.10017355  0.53993912     0.78330
C391        C  0.05565252  0.09580321  0.94061896     0.78200
C392        C  0.44220561  0.09826781  0.53114605     0.78160
O393        O  0.03502448  0.04935948  0.61699566    -0.70960
O394        O  0.46518796  0.46115568  0.62028461    -0.71180
O395        O  0.04687348  0.47175890  0.62027975    -0.71040
O396        O  0.45350051  0.03892082  0.61710186    -0.71050
O397        O  0.47675636  0.04675018  0.56443071    -0.71010
O398        O  0.02317480  0.45875718  0.56914896    -0.71030
O399        O  0.45348248  0.48137993  0.56778258    -0.70970
O400        O  0.04602474  0.02503900  0.56574214    -0.71160
V401        V  0.00004932  0.00539168  0.62100733     1.35240
V402        V  0.49998302  0.50293666  0.56726424     1.35170
C403        C  0.05446616  0.05013896  0.58654049     0.78270
C404        C  0.44497261  0.45808378  0.59046778     0.78330
C405        C  0.04892456  0.45153631  0.59099322     0.78200
C406        C  0.45140831  0.05611279  0.58590281     0.78160
O407        O  0.42055152  0.04247204  0.96516508    -0.70960
O408        O  0.42151359  0.45544886  0.51255165    -0.71180
O409        O  0.42238987  0.47604314  0.94462327    -0.71040
O410        O  0.41991344  0.02172161  0.53340954    -0.71050
O411        O  0.36625691  0.04324459  0.52129363    -0.71010
O412        O  0.36870299  0.45342737  0.95503345    -0.71030
O413        O  0.36728032  0.46569928  0.53430014    -0.70970
O414        O  0.36734714  0.03083982  0.94224192    -0.71160
V415        V  0.42056599  0.99895885  0.98891663     1.35240
V416        V  0.36499237  0.49823769  0.98821887     1.35170
C417        C  0.39835638  0.04991208  0.93993320     0.78270
C418        C  0.39892051  0.44751805  0.53733926     0.78330
C419        C  0.40030574  0.45153072  0.93632415     0.78200
C420        C  0.39696307  0.04581147  0.54109645     0.78160
O421        O  0.02325850  0.04185658  0.91052694    -0.70960
O422        O  0.48009192  0.45241719  0.91361578    -0.71180
O423        O  0.04841533  0.47667380  0.91423546    -0.71040
O424        O  0.45416558  0.01743191  0.90999128    -0.71050
O425        O  0.46655269  0.03808254  0.85787642    -0.71010
O426        O  0.04008511  0.45251424  0.86249083    -0.71030
O427        O  0.45777755  0.45995884  0.86070199    -0.70970
O428        O  0.04851657  0.02994037  0.85957293    -0.71160
V429        V  0.00151690  0.99714648  0.91159706     1.35240
V430        V  0.50317097  0.49498754  0.85783947     1.35170
C431        C  0.04923787  0.04981013  0.88911215     0.78270
C432        C  0.45552240  0.44248075  0.89174667     0.78330
C433        C  0.05879206  0.45230596  0.89331518     0.78200
C434        C  0.44559015  0.04077812  0.88734270     0.78160
O435        O  0.02463968  0.42321697  0.94770674    -0.70960
O436        O  0.47907303  0.42615790  0.53757023    -0.71180
O437        O  0.04788017  0.42674410  0.51459045    -0.71040
O438        O  0.45505838  0.42255551  0.97056391    -0.71050
O439        O  0.46713627  0.37096645  0.95017566    -0.71010
O440        O  0.03925674  0.37572452  0.53854167    -0.71030
O441        O  0.45719090  0.37403223  0.52982353    -0.70970
O442        O  0.04904860  0.37281256  0.95974642    -0.71160
V443        V  0.00164919  0.42406731  0.99256716     1.35240
V444        V  0.50309882  0.37118631  0.99468593     1.35170
C445        C  0.05050544  0.40197367  0.93989223     0.78270
C446        C  0.45452755  0.40456474  0.54756141     0.78330
C447        C  0.05792777  0.40602186  0.53928515     0.78200
C448        C  0.44674816  0.40018586  0.94671743     0.78160
C449        C  0.10696048  0.14192663  0.58463005     0.24410
C450        C  0.10329449  0.10403368  0.58919229    -0.23700
C451        C  0.12284685  0.08777721  0.61881780     0.19320
C452        C  0.14313159  0.10865421  0.64421460     0.24350
C453        C  0.14689043  0.14649968  0.63943012    -0.23640
C454        C  0.12770514  0.16270344  0.60971054     0.19250
F455        F  0.12910361  0.19913688  0.60459305    -0.13600
F456        F  0.09252916  0.15953749  0.55514618    -0.15960
F457        F  0.15745820  0.09122167  0.67397076    -0.15960
F458        F  0.12197910  0.05130842  0.62384028    -0.13600
C459        C  0.35609524  0.09669860  0.59636485     0.24410
C460        C  0.39518504  0.10239508  0.58884586    -0.23700
C461        C  0.41341864  0.13143438  0.60678439     0.19320
C462        C  0.39332849  0.15458356  0.63052164     0.24350
C463        C  0.35440830  0.14860645  0.63860651    -0.23640
C464        C  0.33598599  0.11987517  0.62009268     0.19250
F465        F  0.29806532  0.11387032  0.62480416    -0.13600
F466        F  0.33690857  0.06810317  0.58217483    -0.15960
F467        F  0.41230501  0.18356969  0.64392830    -0.15960
F468        F  0.45124104  0.13754397  0.60155585    -0.13600
C469        C  0.16438394  0.37158016  0.61159909     0.24410
C470        C  0.14479588  0.34847265  0.63588825    -0.23700
C471        C  0.10472265  0.35267888  0.63891704     0.19320
C472        C  0.08532171  0.37850901  0.61784980     0.24350
C473        C  0.10504147  0.40226875  0.59424922    -0.23640
C474        C  0.14522715  0.39859939  0.59196039     0.19250
F475        F  0.16702277  0.42047639  0.57085296    -0.13600
F476        F  0.20287214  0.36891202  0.60770801    -0.15960
F477        F  0.04670483  0.38032357  0.62083696    -0.15960
F478        F  0.08339332  0.33250002  0.66222097    -0.13600
C479        C  0.10511223  0.14758402  0.84088799     0.24410
C480        C  0.14549369  0.14973017  0.84221267    -0.23700
C481        C  0.16478470  0.12581661  0.86584106     0.19320
C482        C  0.14500905  0.09978627  0.88615038     0.24350
C483        C  0.10458151  0.09873481  0.88599761    -0.23640
C484        C  0.08524452  0.12311453  0.86298193     0.19250
F485        F  0.04650202  0.12302714  0.86134692    -0.13600
F486        F  0.08364863  0.16875502  0.81877343    -0.15960
F487        F  0.16650404  0.07571942  0.90498527    -0.15960
F488        F  0.20346189  0.12662010  0.86836021    -0.13600
C489        C  0.35362499  0.34919996  0.59677508     0.24410
C490        C  0.35288634  0.35006331  0.63595689    -0.23700
C491        C  0.37489522  0.37684948  0.65349325     0.19320
C492        C  0.39529577  0.40263749  0.63309303     0.24350
C493        C  0.39673851  0.40110563  0.59399565    -0.23640
C494        C  0.37540618  0.37393865  0.57648058     0.19250
F495        F  0.37538573  0.37126337  0.53906304    -0.13600
F496        F  0.33435274  0.32429385  0.57696147    -0.15960
F497        F  0.41279349  0.42904599  0.65254381    -0.15960
F498        F  0.37593310  0.37888473  0.69092944    -0.13600
C499        C  0.16481172  0.37298945  0.86585299     0.24410
C500        C  0.14475951  0.35193400  0.83979613    -0.23700
C501        C  0.10461767  0.35461170  0.83929587     0.19320
C502        C  0.08540220  0.37685711  0.86441458     0.24350
C503        C  0.10540691  0.39739334  0.89081390    -0.23640
C504        C  0.14550023  0.39440365  0.89169718     0.19250
F505        F  0.16667937  0.41134868  0.91766461    -0.13600
F506        F  0.20356049  0.37236130  0.86700793    -0.15960
F507        F  0.04669703  0.37825269  0.86276619    -0.15960
F508        F  0.08325174  0.33707563  0.81396302    -0.13600
C509        C  0.34790393  0.14592138  0.88202821     0.24410
C510        C  0.35390382  0.15127948  0.84370730    -0.23700
C511        C  0.38166442  0.12963197  0.82624704     0.19320
C512        C  0.40250103  0.10358263  0.84586332     0.24350
C513        C  0.39653450  0.09813860  0.88418095    -0.23640
C514        C  0.36943473  0.12051767  0.90183450     0.19250
F515        F  0.36347756  0.11791193  0.93880389    -0.13600
F516        F  0.32073624  0.16418728  0.90108592    -0.15960
F517        F  0.42913126  0.08495201  0.82661548    -0.15960
F518        F  0.38833423  0.13315298  0.78946715    -0.13600
C519        C  0.40896543  0.36103131  0.87861309     0.24410
C520        C  0.39802436  0.39654368  0.88862070    -0.23700
C521        C  0.36385743  0.41027066  0.87326966     0.19320
C522        C  0.34077252  0.38880967  0.85054133     0.24350
C523        C  0.35138518  0.35297023  0.84122167    -0.23640
C524        C  0.38521482  0.33914913  0.85692764     0.19250
F525        F  0.39564992  0.30411807  0.85160165    -0.13600
F526        F  0.44320347  0.34725899  0.88875080    -0.15960
F527        F  0.30716577  0.40324050  0.83925910    -0.15960
F528        F  0.35267047  0.44502818  0.87923487    -0.13600
O529        O  0.22523640  0.79537724  0.31500159    -0.70960
O530        O  0.27127416  0.70757461  0.31850157    -0.71180
O531        O  0.20186017  0.72984900  0.31695727    -0.71040
O532        O  0.29476507  0.77362414  0.31662679    -0.71050
O533        O  0.28298675  0.79733995  0.36792145    -0.71010
O534        O  0.21193073  0.70916368  0.36971751    -0.71030
O535        O  0.29411372  0.72001733  0.37007985    -0.70970
O536        O  0.20122171  0.78686769  0.36730871    -0.71160
V537        V  0.24832134  0.75161433  0.31728840     1.35240
V538        V  0.24750960  0.75336122  0.37108298     1.35170
C539        C  0.19955255  0.80430401  0.33630619     0.78270
C540        C  0.29656022  0.70012720  0.34059872     0.78330
C541        C  0.19254374  0.70641207  0.33932530     0.78200
C542        C  0.30319702  0.79838177  0.33786320     0.78160
O543        O  0.32792365  0.79612647  0.26050333    -0.70960
O544        O  0.33056781  0.70599331  0.21985261    -0.71180
O545        O  0.32931057  0.73108119  0.28621939    -0.71040
O546        O  0.32911105  0.77104954  0.19409506    -0.71050
O547        O  0.38234204  0.79461235  0.20374371    -0.71010
O548        O  0.38363517  0.70954462  0.27701268    -0.71030
O549        O  0.38404833  0.71663075  0.19712305    -0.70970
O550        O  0.38186995  0.78795318  0.28344855    -0.71160
V551        V  0.32976683  0.75108528  0.24016019     1.35240
V552        V  0.38534477  0.75219801  0.24038685     1.35170
C553        C  0.35008035  0.80603981  0.28477307     0.78270
C554        C  0.35331998  0.69716337  0.19551518     0.78330
C555        C  0.35220305  0.70768373  0.29608878     0.78200
C556        C  0.35122075  0.79513195  0.18434484     0.78160
O557        O  0.21027849  0.87743089  0.28026842    -0.70960
O558        O  0.28325391  0.87581138  0.19181898    -0.71180
O559        O  0.20144121  0.87493307  0.20098199    -0.71040
O560        O  0.29248469  0.87812031  0.27123859    -0.71050
O561        O  0.26962388  0.82719178  0.28308306    -0.71010
O562        O  0.22558259  0.82353751  0.19269573    -0.71030
O563        O  0.29454627  0.82543530  0.21599459    -0.70970
O564        O  0.20095067  0.82543330  0.25904360    -0.71040
V565        V  0.24684125  0.87881835  0.23604540     1.35240
V566        V  0.24774682  0.82594089  0.23769894     1.35170
C567        C  0.19116270  0.84744971  0.28272392     0.78270
C568        C  0.30326951  0.84621447  0.19080935     0.78330
C569        C  0.20017506  0.84446737  0.18312563     0.78200
C570        C  0.29441810  0.84914642  0.29146126     0.78160
O571        O  0.16791868  0.77080142  0.28384799    -0.70960
O572        O  0.16998071  0.72631184  0.19421529    -0.71180
O573        O  0.16820685  0.79271595  0.21664525    -0.71040
O574        O  0.16970822  0.70486705  0.26130312    -0.71050
O575        O  0.11593691  0.71558849  0.28361633    -0.71010
O576        O  0.11561529  0.78028904  0.19295356    -0.71030
O577        O  0.11674283  0.70305302  0.20493143    -0.70970
O578        O  0.11453941  0.79261775  0.27163852    -0.71160
V579        V  0.16860336  0.74870141  0.23892691     1.35240
V580        V  0.11318817  0.74783769  0.23829153     1.35170
C581        C  0.14513603  0.79505424  0.29162711     0.78270
C582        C  0.14824714  0.70141281  0.18611606     0.78330
C583        C  0.14603249  0.80015836  0.19155115     0.78200
C584        C  0.14712448  0.69675814  0.28584204     0.78160
O585        O  0.27359229  0.67355598  0.19687665    -0.70960
O586        O  0.22766872  0.67513030  0.28653693    -0.71180
O587        O  0.29710624  0.67576785  0.26379596    -0.71040
O588        O  0.20434593  0.67283391  0.21986464    -0.71050
O589        O  0.21676693  0.62152166  0.19848892    -0.71010
O590        O  0.28742657  0.62492666  0.28768326    -0.71030
O591        O  0.20546627  0.62332414  0.27744434    -0.70970
O592        O  0.29824474  0.62314394  0.20851756    -0.71160
V593        V  0.25074156  0.67381172  0.24178256     1.35240
V594        V  0.25202304  0.62096194  0.24313622     1.35170
C595        C  0.29941644  0.65240236  0.18872562     0.78270
C596        C  0.20254647  0.65366760  0.29539625     0.78330
C597        C  0.30633479  0.65506691  0.28881462     0.78200
C598        C  0.19598056  0.65054674  0.19608393     0.78160
O599        O  0.21272990  0.78911971  0.10861691    -0.70960
O600        O  0.28714003  0.70326464  0.11178361    -0.71180
O601        O  0.20514776  0.71069928  0.11110191    -0.71040
O602        O  0.29494557  0.78061639  0.10966454    -0.71050
O603        O  0.27077735  0.79257154  0.16088472    -0.71010
O604        O  0.22841038  0.70303217  0.16362112    -0.71030
O605        O  0.29674170  0.72741933  0.16329223    -0.70970
O606        O  0.20220811  0.76825925  0.16118713    -0.71160
V607        V  0.24993999  0.74590799  0.10797173     1.35240
V608        V  0.24949172  0.74780099  0.16174810     1.35170
C609        C  0.19275769  0.79161029  0.13877757     0.78270
C610        C  0.30664633  0.70299508  0.14216797     0.78330
C611        C  0.20369703  0.69292945  0.14195573     0.78200
C612        C  0.29618840  0.80068346  0.13904791     0.78160
C613        C  0.32693849  0.82909089  0.31584791    -0.01670
C614        C  0.42304331  0.92015713  0.41379261    -0.01670
C615        C  0.32969428  0.67696153  0.31999598    -0.01670
C616        C  0.42087967  0.57231134  0.40772630    -0.01670
C617        C  0.16720168  0.82674434  0.31432585    -0.01670
C618        C  0.08284666  0.92260150  0.41600828    -0.01670
C619        C  0.32817707  0.82480583  0.15988122    -0.01670
C620        C  0.42147971  0.92609290  0.07003793    -0.01670
C621        C  0.16925655  0.67484111  0.31789574    -0.01670
C622        C  0.08083865  0.57391003  0.41053368    -0.01670
C623        C  0.16822396  0.82276842  0.15995580    -0.01670
C624        C  0.08179912  0.92801885  0.06997614    -0.01670
C625        C  0.33132663  0.67329759  0.16438818    -0.01670
C626        C  0.41866763  0.57773975  0.06356200    -0.01670
C627        C  0.17156356  0.67024658  0.16410746    -0.01670
C628        C  0.07846034  0.58044229  0.06427637    -0.01670
O629        O  0.13373036  0.54442148  0.45514786    -0.70960
O630        O  0.13494451  0.95979799  0.02655036    -0.71180
O631        O  0.13541100  0.96675225  0.44741173    -0.71040
O632        O  0.13336965  0.53808592  0.03406414    -0.71050
O633        O  0.07990772  0.54663978  0.01004439    -0.71010
O634        O  0.08231573  0.95574097  0.47094643    -0.71030
O635        O  0.08124707  0.98209640  0.03677058    -0.70970
O636        O  0.08106266  0.52030110  0.44443589    -0.71160
V637        V  0.13688258  0.50226262  0.49085316     1.35240
V638        V  0.08146135  0.00120282  0.49057482     1.35170
C639        C  0.10314005  0.54445916  0.43518169     0.78270
C640        C  0.10392303  0.95839983  0.04605137     0.78330
C641        C  0.10492284  0.94683612  0.44657392     0.78200
C642        C  0.10186845  0.55667829  0.03438300     0.78160
O643        O  0.45348714  0.62484529  0.44837208    -0.70960
O644        O  0.04330978  0.62883115  0.01942052    -0.71180
O645        O  0.03555829  0.62538260  0.44069311    -0.71040
O646        O  0.46122905  0.62827232  0.02799721    -0.71050
O647        O  0.45200874  0.57606336  0.00765230    -0.71010
O648        O  0.04601508  0.57513622  0.46552389    -0.71030
O649        O  0.02079278  0.57811716  0.03192745    -0.70970
O650        O  0.47751581  0.57323693  0.44126443    -0.71160
V651        V  0.49826795  0.62904625  0.48405775     1.35240
V652        V  0.99905870  0.57619749  0.48656442     1.35170
C653        C  0.45250889  0.59421860  0.43081517     0.78270
C654        C  0.04562451  0.60017321  0.03993914     0.78330
C655        C  0.05565208  0.59580319  0.44061878     0.78200
C656        C  0.44220627  0.59826841  0.03114718     0.78160
O657        O  0.03502562  0.54935894  0.11699565    -0.70960
O658        O  0.46518765  0.96115565  0.12028424    -0.71180
O659        O  0.04687310  0.97175960  0.12028022    -0.71040
O660        O  0.45350153  0.53892096  0.11710265    -0.71050
O661        O  0.47675693  0.54675038  0.06443133    -0.71010
O662        O  0.02317506  0.95875744  0.06914929    -0.71030
O663        O  0.45348251  0.98137962  0.06778201    -0.70970
O664        O  0.04602509  0.52503859  0.06574193    -0.71160
V665        V  0.00005007  0.50539141  0.12100750     1.35240
V666        V  0.49998286  0.00293670  0.06726408     1.35170
C667        C  0.05446697  0.55013841  0.08654028     0.78270
C668        C  0.44497262  0.95808349  0.09046723     0.78330
C669        C  0.04892471  0.95153692  0.09099379     0.78200
C670        C  0.45140919  0.55611310  0.08590372     0.78160
O671        O  0.42055110  0.54247303  0.46516623    -0.70960
O672        O  0.42151449  0.95544805  0.01255093    -0.71180
O673        O  0.42239140  0.97604197  0.44462252    -0.71040
O674        O  0.41991360  0.52172234  0.03341051    -0.71050
O675        O  0.36625709  0.54324585  0.02129533    -0.71010
O676        O  0.36870452  0.95342582  0.45503199    -0.71030
O677        O  0.36728081  0.96569799  0.03429869    -0.70970
O678        O  0.36734629  0.53084145  0.44224367    -0.71160
V679        V  0.42056532  0.49895976  0.48891755     1.35240
V680        V  0.36499305  0.99823624  0.48821728     1.35170
C681        C  0.39835570  0.54991343  0.43993470     0.78270
C682        C  0.39892118  0.94751710  0.03733829     0.78330
C683        C  0.40030762  0.95152929  0.43632323     0.78200
C684        C  0.39696352  0.54581234  0.04109778     0.78160
O685        O  0.02325723  0.54185692  0.41052688    -0.70960
O686        O  0.48009396  0.95241647  0.41361550    -0.71180
O687        O  0.04841702  0.97667374  0.41423607    -0.71040
O688        O  0.45416427  0.51743295  0.40999217    -0.71050
O689        O  0.46655029  0.53808307  0.35787689    -0.71010
O690        O  0.04008766  0.95251393  0.36249135    -0.71030
O691        O  0.45778008  0.95995802  0.36070151    -0.70970
O692        O  0.04851441  0.52994070  0.35957247    -0.71160
V693        V  0.00151531  0.49714698  0.41159714     1.35240
V694        V  0.50317337  0.99498701  0.35783945     1.35170
C695        C  0.04923633  0.54981035  0.38911177     0.78270
C696        C  0.45552473  0.94247986  0.39174616     0.78330
C697        C  0.05879419  0.95230596  0.39331593     0.78200
C698        C  0.44558854  0.54077912  0.38734365     0.78160
O699        O  0.02464163  0.92321703  0.44770733    -0.70960
O700        O  0.47907391  0.92615767  0.03757026    -0.71180
O701        O  0.04788124  0.92674466  0.01459115    -0.71040
O702        O  0.45506003  0.92255474  0.47056366    -0.71050
O703        O  0.46713907  0.87096589  0.45017564    -0.71010
O704        O  0.03925822  0.87572498  0.03854240    -0.71030
O705        O  0.45719247  0.87403179  0.02982345    -0.70970
O706        O  0.04905102  0.87281289  0.45974740    -0.71160
V707        V  0.00165056  0.92406723  0.49256743     1.35240
V708        V  0.50310088  0.87118626  0.49468637     1.35170
C709        C  0.05050772  0.90197396  0.43989317     0.78270
C710        C  0.45452855  0.90456431  0.04756124     0.78330
C711        C  0.05792888  0.90602252  0.03928592     0.78200
C712        C  0.44675052  0.90018497  0.44671705     0.78160
C713        C  0.10696158  0.64192597  0.08462954     0.24410
C714        C  0.10329562  0.60403299  0.08919174    -0.23700
C715        C  0.12284806  0.58777654  0.11881720     0.19320
C716        C  0.14313271  0.60865358  0.14421407     0.24350
C717        C  0.14689125  0.64649911  0.13942979    -0.23640
C718        C  0.12770602  0.66270283  0.10971016     0.19250
F719        F  0.12910432  0.69913628  0.10459274    -0.13600
F720        F  0.09253048  0.65953683  0.05514559    -0.15960
F721        F  0.15745955  0.59122099  0.17397010    -0.15960
F722        F  0.12198044  0.55130773  0.12383956    -0.13600
C723        C  0.35609638  0.59669844  0.09636681     0.24410
C724        C  0.39518598  0.60239550  0.08884728    -0.23700
C725        C  0.41341933  0.63143523  0.10678533     0.19320
C726        C  0.39332899  0.65458446  0.13052238     0.24350
C727        C  0.35440898  0.64860683  0.13860763    -0.23640
C728        C  0.33598697  0.61987503  0.12009439     0.19250
F729        F  0.29806642  0.61386970  0.12480612    -0.13600
F730        F  0.33691007  0.56810235  0.08217770    -0.15960
F731        F  0.41230505  0.68357112  0.14392846    -0.15960
F732        F  0.45124159  0.63754524  0.10155644    -0.13600
C733        C  0.16438404  0.87157948  0.11159851     0.24410
C734        C  0.14479592  0.84847231  0.13588792    -0.23700
C735        C  0.10472286  0.85267935  0.13891754     0.19320
C736        C  0.08532210  0.87851000  0.11785083     0.24350
C737        C  0.10504196  0.90226945  0.09425004    -0.23640
C738        C  0.14522750  0.89859915  0.09196029     0.19250
F739        F  0.16702323  0.92047548  0.07085226    -0.13600
F740        F  0.20287212  0.86891058  0.10770675    -0.15960
F741        F  0.04670531  0.88032525  0.12083866    -0.15960
F742        F  0.08339357  0.83250093  0.16222191    -0.13600
C743        C  0.10511156  0.64758540  0.34088921     0.24410
C744        C  0.14549316  0.64973027  0.34221273    -0.23700
C745        C  0.16478405  0.62581541  0.36583989     0.19320
C746        C  0.14500814  0.59978482  0.38614870     0.24350
C747        C  0.10458058  0.59873450  0.38599693    -0.23640
C748        C  0.08524371  0.62311545  0.36298252     0.19250
F749        F  0.04650116  0.62302904  0.36134836    -0.13600
F750        F  0.08364787  0.66875862  0.31877695    -0.15960
F751        F  0.16650283  0.57571641  0.40498190    -0.15960
F752        F  0.20346131  0.62661789  0.36835835    -0.13600
C753        C  0.35362613  0.84919900  0.09677501     0.24410
C754        C  0.35288647  0.85006333  0.13595680    -0.23700
C755        C  0.37489464  0.87685016  0.15349294     0.19320
C756        C  0.39529530  0.90263794  0.13309249     0.24350
C757        C  0.39673893  0.90110518  0.09399516    -0.23640
C758        C  0.37540734  0.87393754  0.07648033     0.19250
F759        F  0.37538770  0.87126143  0.03906285    -0.13600
F760        F  0.33435507  0.82429190  0.07696162    -0.15960
F761        F  0.41279207  0.92904719  0.15254301    -0.15960
F762        F  0.37593178  0.87888627  0.19092910    -0.13600
C763        C  0.16481253  0.87299209  0.36584952     0.24410
C764        C  0.14475920  0.85193397  0.33979574    -0.23700
C765        C  0.10461713  0.85460879  0.33929916     0.19320
C766        C  0.08540268  0.87685516  0.36441769     0.24350
C767        C  0.10540855  0.89739374  0.39081435    -0.23640
C768        C  0.14550213  0.89440659  0.39169419     0.19250
F769        F  0.16668271  0.91135515  0.41765810    -0.13600
F770        F  0.20356146  0.87236601  0.36700106    -0.15960
F771        F  0.04669730  0.87824918  0.36277198    -0.15960
F772        F  0.08324981  0.83706822  0.31397060    -0.13600
C773        C  0.34789800  0.64591806  0.38202774     0.24410
C774        C  0.35390289  0.65128041  0.34370820    -0.23700
C775        C  0.38166850  0.62963757  0.32624953     0.19320
C776        C  0.40250674  0.60358997  0.34586646     0.24350
C777        C  0.39653388  0.59814018  0.38418230    -0.23640
C778        C  0.36942877  0.62051460  0.40183445     0.19250
F779        F  0.36346661  0.61790505  0.43880278    -0.13600
F780        F  0.32072459  0.66417869  0.40108318    -0.15960
F781        F  0.42914570  0.58496769  0.32662155    -0.15960
F782        F  0.38834257  0.63316207  0.28947073    -0.13600
C783        C  0.40896294  0.86102777  0.37861691     0.24410
C784        C  0.39802643  0.89654273  0.38861989    -0.23700
C785        C  0.36386319  0.91027293  0.37326431     0.19320
C786        C  0.34077677  0.88881276  0.35053660     0.24350
C787        C  0.35138474  0.85297088  0.34122159    -0.23640
C788        C  0.38521117  0.83914690  0.35693124     0.19250
F789        F  0.39564214  0.80411429  0.35160794    -0.13600
F790        F  0.44319800  0.84725165  0.38875842    -0.15960
F791        F  0.30717310  0.90324707  0.33925058    -0.15960
F792        F  0.35268107  0.94503254  0.37922544    -0.13600
O793        O  0.22523639  0.79537724  0.81500158    -0.70960
O794        O  0.27127417  0.70757462  0.81850157    -0.71180
O795        O  0.20186017  0.72984900  0.81695727    -0.71040
O796        O  0.29476507  0.77362415  0.81662679    -0.71050
O797        O  0.28298675  0.79733996  0.86792144    -0.71010
O798        O  0.21193074  0.70916368  0.86971751    -0.71030
O799        O  0.29411373  0.72001734  0.87007985    -0.70970
O800        O  0.20122171  0.78686769  0.86730871    -0.71160
V801        V  0.24832134  0.75161433  0.81728840     1.35240
V802        V  0.24750960  0.75336122  0.87108298     1.35170
C803        C  0.19955255  0.80430401  0.83630619     0.78270
C804        C  0.29656022  0.70012721  0.84059873     0.78330
C805        C  0.19254375  0.70641207  0.83932531     0.78200
C806        C  0.30319702  0.79838178  0.83786320     0.78160
O807        O  0.32792365  0.79612648  0.76050332    -0.70960
O808        O  0.33056781  0.70599331  0.71985261    -0.71180
O809        O  0.32931058  0.73108120  0.78621939    -0.71040
O810        O  0.32911104  0.77104955  0.69409505    -0.71050
O811        O  0.38234204  0.79461236  0.70374371    -0.71010
O812        O  0.38363518  0.70954464  0.77701268    -0.71030
O813        O  0.38404833  0.71663076  0.69712305    -0.70970
O814        O  0.38186994  0.78795320  0.78344854    -0.71160
V815        V  0.32976683  0.75108529  0.74016019     1.35240
V816        V  0.38534476  0.75219803  0.74038685     1.35170
C817        C  0.35008034  0.80603982  0.78477307     0.78270
C818        C  0.35331998  0.69716338  0.69551518     0.78330
C819        C  0.35220306  0.70768375  0.79608878     0.78200
C820        C  0.35122074  0.79513196  0.68434484     0.78160
O821        O  0.21027847  0.87743089  0.78026841    -0.70960
O822        O  0.28325389  0.87581138  0.69181897    -0.71180
O823        O  0.20144119  0.87493306  0.70098198    -0.71040
O824        O  0.29248467  0.87812032  0.77123858    -0.71050
O825        O  0.26962386  0.82719178  0.78308305    -0.71010
O826        O  0.22558258  0.82353751  0.69269572    -0.71030
O827        O  0.29454626  0.82543530  0.71599459    -0.70970
O828        O  0.20095066  0.82543330  0.75904360    -0.71040
V829        V  0.24684123  0.87881835  0.73604539     1.35240
V830        V  0.24774681  0.82594089  0.73769894     1.35170
C831        C  0.19116269  0.84744971  0.78272392     0.78270
C832        C  0.30326949  0.84621447  0.69080935     0.78330
C833        C  0.20017505  0.84446736  0.68312562     0.78200
C834        C  0.29441809  0.84914643  0.79146125     0.78160
O835        O  0.16791868  0.77080141  0.78384799    -0.70960
O836        O  0.16998071  0.72631183  0.69421529    -0.71180
O837        O  0.16820684  0.79271594  0.71664525    -0.71040
O838        O  0.16970823  0.70486704  0.76130313    -0.71050
O839        O  0.11593692  0.71558848  0.78361634    -0.71010
O840        O  0.11561528  0.78028902  0.69295356    -0.71030
O841        O  0.11674284  0.70305300  0.70493144    -0.70970
O842        O  0.11453940  0.79261774  0.77163852    -0.71160
V843        V  0.16860336  0.74870140  0.73892692     1.35240
V844        V  0.11318817  0.74783768  0.73829153     1.35170
C845        C  0.14513602  0.79505423  0.79162711     0.78270
C846        C  0.14824715  0.70141279  0.68611607     0.78330
C847        C  0.14603248  0.80015834  0.69155114     0.78200
C848        C  0.14712449  0.69675813  0.78584205     0.78160
O849        O  0.27359230  0.67355598  0.69687666    -0.70960
O850        O  0.22766873  0.67513030  0.78653694    -0.71180
O851        O  0.29710625  0.67576785  0.76379597    -0.71040
O852        O  0.20434594  0.67283390  0.71986465    -0.71050
O853        O  0.21676695  0.62152165  0.69848893    -0.71010
O854        O  0.28742659  0.62492666  0.78768327    -0.71030
O855        O  0.20546629  0.62332413  0.77744435    -0.70970
O856        O  0.29824476  0.62314395  0.70851757    -0.71160
V857        V  0.25074156  0.67381172  0.74178257     1.35240
V858        V  0.25202305  0.62096194  0.74313623     1.35170
C859        C  0.29941645  0.65240236  0.68872563     0.78270
C860        C  0.20254648  0.65366759  0.79539626     0.78330
C861        C  0.30633480  0.65506691  0.78881462     0.78200
C862        C  0.19598057  0.65054673  0.69608393     0.78160
O863        O  0.21272989  0.78911970  0.60861691    -0.70960
O864        O  0.28714003  0.70326464  0.61178361    -0.71180
O865        O  0.20514776  0.71069927  0.61110191    -0.71040
O866        O  0.29494557  0.78061638  0.60966454    -0.71050
O867        O  0.27077735  0.79257154  0.66088472    -0.71010
O868        O  0.22841038  0.70303216  0.66362112    -0.71030
O869        O  0.29674170  0.72741933  0.66329223    -0.70970
O870        O  0.20220811  0.76825923  0.66118713    -0.71160
V871        V  0.24993999  0.74590798  0.60797173     1.35240
V872        V  0.24949172  0.74780099  0.66174810     1.35170
C873        C  0.19275768  0.79161028  0.63877757     0.78270
C874        C  0.30664633  0.70299508  0.64216798     0.78330
C875        C  0.20369704  0.69292944  0.64195574     0.78200
C876        C  0.29618839  0.80068346  0.63904791     0.78160
C877        C  0.32693848  0.82909090  0.81584790    -0.01670
C878        C  0.42304333  0.92015712  0.91379260    -0.01670
C879        C  0.32969429  0.67696154  0.81999599    -0.01670
C880        C  0.42087968  0.57231135  0.90772630    -0.01670
C881        C  0.16720168  0.82674433  0.81432585    -0.01670
C882        C  0.08284667  0.92260151  0.91600828    -0.01670
C883        C  0.32817705  0.82480584  0.65988122    -0.01670
C884        C  0.42147970  0.92609291  0.57003794    -0.01670
C885        C  0.16925656  0.67484110  0.81789575    -0.01670
C886        C  0.08083866  0.57391003  0.91053370    -0.01670
C887        C  0.16822395  0.82276840  0.65995580    -0.01670
C888        C  0.08179911  0.92801884  0.56997614    -0.01670
C889        C  0.33132664  0.67329759  0.66438818    -0.01670
C890        C  0.41866763  0.57773975  0.56356200    -0.01670
C891        C  0.17156357  0.67024657  0.66410747    -0.01670
C892        C  0.07846035  0.58044230  0.56427635    -0.01670
O893        O  0.13373037  0.54442147  0.95514788    -0.70960
O894        O  0.13494450  0.95979797  0.52655036    -0.71180
O895        O  0.13541100  0.96675227  0.94741172    -0.71040
O896        O  0.13336965  0.53808593  0.53406412    -0.71050
O897        O  0.07990771  0.54663979  0.51004438    -0.71010
O898        O  0.08231574  0.95574098  0.97094643    -0.71030
O899        O  0.08124706  0.98209639  0.53677058    -0.70970
O900        O  0.08106267  0.52030110  0.94443590    -0.71160
V901        V  0.13688259  0.50226261  0.99085318     1.35240
V902        V  0.08146136  0.00120283  0.99057481     1.35170
C903        C  0.10314006  0.54445915  0.93518171     0.78270
C904        C  0.10392303  0.95839981  0.54605137     0.78330
C905        C  0.10492285  0.94683613  0.94657392     0.78200
C906        C  0.10186845  0.55667830  0.53438299     0.78160
O907        O  0.45348715  0.62484529  0.94837209    -0.70960
O908        O  0.04330979  0.62883116  0.51942050    -0.71180
O909        O  0.03555830  0.62538260  0.94069313    -0.71040
O910        O  0.46122905  0.62827232  0.52799721    -0.71050
O911        O  0.45200874  0.57606336  0.50765230    -0.71010
O912        O  0.04601509  0.57513622  0.96552390    -0.71030
O913        O  0.02079278  0.57811717  0.53192745    -0.70970
O914        O  0.47751581  0.57323693  0.94126443    -0.71160
V915        V  0.49826796  0.62904625  0.98405776     1.35240
V916        V  0.99905870  0.57619748  0.98656443     1.35170
C917        C  0.45250890  0.59421860  0.93081517     0.78270
C918        C  0.04562452  0.60017322  0.53993913     0.78330
C919        C  0.05565209  0.59580319  0.94061880     0.78200
C920        C  0.44220627  0.59826841  0.53114717     0.78160
O921        O  0.03502563  0.54935895  0.61699564    -0.70960
O922        O  0.46518765  0.96115565  0.62028425    -0.71180
O923        O  0.04687310  0.97175959  0.62028022    -0.71040
O924        O  0.45350154  0.53892097  0.61710265    -0.71050
O925        O  0.47675693  0.54675038  0.56443133    -0.71010
O926        O  0.02317505  0.95875743  0.56914929    -0.71030
O927        O  0.45348251  0.98137962  0.56778202    -0.70970
O928        O  0.04602510  0.52503860  0.56574192    -0.71160
V929        V  0.00005008  0.50539142  0.62100750     1.35240
V930        V  0.49998286  0.00293669  0.56726408     1.35170
C931        C  0.05446697  0.55013842  0.58654027     0.78270
C932        C  0.44497262  0.95808349  0.59046724     0.78330
C933        C  0.04892471  0.95153691  0.59099379     0.78200
C934        C  0.45140920  0.55611311  0.58590371     0.78160
O935        O  0.42055111  0.54247303  0.96516624    -0.70960
O936        O  0.42151449  0.95544806  0.51255094    -0.71180
O937        O  0.42239141  0.97604196  0.94462251    -0.71040
O938        O  0.41991360  0.52172234  0.53341051    -0.71050
O939        O  0.36625709  0.54324584  0.52129533    -0.71010
O940        O  0.36870453  0.95342580  0.95503198    -0.71030
O941        O  0.36728081  0.96569801  0.53429871    -0.70970
O942        O  0.36734629  0.53084146  0.94224367    -0.71160
V943        V  0.42056532  0.49895976  0.98891755     1.35240
V944        V  0.36499305  0.99823622  0.98821727     1.35170
C945        C  0.39835571  0.54991344  0.93993470     0.78270
C946        C  0.39892117  0.94751711  0.53733830     0.78330
C947        C  0.40030763  0.95152927  0.93632323     0.78200
C948        C  0.39696352  0.54581234  0.54109778     0.78160
O949        O  0.02325724  0.54185692  0.91052689    -0.70960
O950        O  0.48009397  0.95241646  0.91361549    -0.71180
O951        O  0.04841703  0.97667374  0.91423607    -0.71040
O952        O  0.45416427  0.51743295  0.90999218    -0.71050
O953        O  0.46655029  0.53808307  0.85787689    -0.71010
O954        O  0.04008767  0.95251394  0.86249135    -0.71030
O955        O  0.45778009  0.95995801  0.86070150    -0.70970
O956        O  0.04851442  0.52994070  0.85957248    -0.71160
V957        V  0.00151532  0.49714698  0.91159714     1.35240
V958        V  0.50317338  0.99498701  0.85783944     1.35170
C959        C  0.04923635  0.54981035  0.88911179     0.78270
C960        C  0.45552475  0.94247985  0.89174616     0.78330
C961        C  0.05879420  0.95230597  0.89331593     0.78200
C962        C  0.44558854  0.54077912  0.88734365     0.78160
O963        O  0.02464164  0.92321704  0.94770733    -0.70960
O964        O  0.47907390  0.92615767  0.53757026    -0.71180
O965        O  0.04788123  0.92674465  0.51459115    -0.71040
O966        O  0.45506005  0.92255473  0.97056366    -0.71050
O967        O  0.46713910  0.87096589  0.95017563    -0.71010
O968        O  0.03925821  0.87572497  0.53854241    -0.71030
O969        O  0.45719245  0.87403179  0.52982345    -0.70970
O970        O  0.04905104  0.87281289  0.95974740    -0.71160
V971        V  0.00165057  0.92406723  0.99256743     1.35240
V972        V  0.50310091  0.87118626  0.99468637     1.35170
C973        C  0.05050774  0.90197397  0.93989317     0.78270
C974        C  0.45452853  0.90456432  0.54756124     0.78330
C975        C  0.05792887  0.90602251  0.53928592     0.78200
C976        C  0.44675055  0.90018496  0.94671705     0.78160
C977        C  0.10696154  0.64192598  0.58462957     0.24410
C978        C  0.10329563  0.60403300  0.58919173    -0.23700
C979        C  0.12284810  0.58777653  0.61881715     0.19320
C980        C  0.14313276  0.60865356  0.64421403     0.24350
C981        C  0.14689126  0.64649910  0.63942979    -0.23640
C982        C  0.12770600  0.66270283  0.60971019     0.19250
F983        F  0.12910427  0.69913629  0.60459280    -0.13600
F984        F  0.09253037  0.65953687  0.55514566    -0.15960
F985        F  0.15745964  0.59122095  0.67397002    -0.15960
F986        F  0.12198052  0.55130772  0.62383948    -0.13600
C987        C  0.35609638  0.59669845  0.59636681     0.24410
C988        C  0.39518598  0.60239550  0.58884728    -0.23700
C989        C  0.41341933  0.63143523  0.60678533     0.19320
C990        C  0.39332899  0.65458446  0.63052238     0.24350
C991        C  0.35440899  0.64860684  0.63860763    -0.23640
C992        C  0.33598697  0.61987504  0.62009439     0.19250
F993        F  0.29806643  0.61386970  0.62480613    -0.13600
F994        F  0.33691007  0.56810236  0.58217770    -0.15960
F995        F  0.41230506  0.68357112  0.64392847    -0.15960
F996        F  0.45124159  0.63754524  0.60155644    -0.13600
C997        C  0.16438404  0.87157949  0.61159853     0.24410
C998        C  0.14479591  0.84847229  0.63588791    -0.23700
C999        C  0.10472285  0.85267930  0.63891750     0.19320
C1000       C  0.08532209  0.87850996  0.61785080     0.24350
C1001       C  0.10504195  0.90226944  0.59425004    -0.23640
C1002       C  0.14522749  0.89859917  0.59196033     0.19250
F1003       F  0.16702322  0.92047555  0.57085236    -0.13600
F1004       F  0.20287212  0.86891062  0.60770679    -0.15960
F1005       F  0.04670529  0.88032518  0.62083860    -0.15960
F1006       F  0.08339355  0.83250084  0.66222183    -0.13600
C1007       C  0.10511157  0.64758537  0.84088920     0.24410
C1008       C  0.14549317  0.64973027  0.84221273    -0.23700
C1009       C  0.16478406  0.62581542  0.86583992     0.19320
C1010       C  0.14500815  0.59978484  0.88614874     0.24350
C1011       C  0.10458059  0.59873450  0.88599695    -0.23640
C1012       C  0.08524373  0.62311543  0.86298252     0.19250
F1013       F  0.04650118  0.62302901  0.86134834    -0.13600
F1014       F  0.08364789  0.66875855  0.81877690    -0.15960
F1015       F  0.16650285  0.57571647  0.90498197    -0.15960
F1016       F  0.20346132  0.62661792  0.86835840    -0.13600
C1017       C  0.35362607  0.84919904  0.59677501     0.24410
C1018       C  0.35288645  0.85006334  0.63595679    -0.23700
C1019       C  0.37489465  0.87685014  0.65349294     0.19320
C1020       C  0.39529531  0.90263792  0.63309250     0.24350
C1021       C  0.39673892  0.90110519  0.59399517    -0.23640
C1022       C  0.37540730  0.87393757  0.57648033     0.19250
F1023       F  0.37538764  0.87126148  0.53906285    -0.13600
F1024       F  0.33435495  0.82429199  0.57696160    -0.15960
F1025       F  0.41279213  0.92904714  0.65254303    -0.15960
F1026       F  0.37593182  0.87888622  0.69092910    -0.13600
C1027       C  0.16481253  0.87299210  0.86584950     0.24410
C1028       C  0.14475920  0.85193396  0.83979574    -0.23700
C1029       C  0.10461712  0.85460877  0.83929917     0.19320
C1030       C  0.08540268  0.87685516  0.86441770     0.24350
C1031       C  0.10540856  0.89739375  0.89081434    -0.23640
C1032       C  0.14550214  0.89440661  0.89169417     0.19250
F1033       F  0.16668273  0.91135519  0.91765807    -0.13600
F1034       F  0.20356147  0.87236603  0.86700103    -0.15960
F1035       F  0.04669730  0.87824917  0.86277200    -0.15960
F1036       F  0.08324980  0.83706819  0.81397064    -0.13600
C1037       C  0.34789799  0.64591806  0.88202774     0.24410
C1038       C  0.35390290  0.65128042  0.84370820    -0.23700
C1039       C  0.38166852  0.62963759  0.82624954     0.19320
C1040       C  0.40250677  0.60359000  0.84586647     0.24350
C1041       C  0.39653389  0.59814019  0.88418230    -0.23640
C1042       C  0.36942876  0.62051460  0.90183445     0.19250
F1043       F  0.36346659  0.61790504  0.93880278    -0.13600
F1044       F  0.32072457  0.66417868  0.90108318    -0.15960
F1045       F  0.42914575  0.58496774  0.82662157    -0.15960
F1046       F  0.38834261  0.63316211  0.78947075    -0.13600
C1047       C  0.40896291  0.86102773  0.87861695     0.24410
C1048       C  0.39802645  0.89654272  0.88861988    -0.23700
C1049       C  0.36386325  0.91027295  0.87326425     0.19320
C1050       C  0.34077682  0.88881279  0.85053654     0.24350
C1051       C  0.35138473  0.85297089  0.84122158    -0.23640
C1052       C  0.38521113  0.83914688  0.85693127     0.19250
F1053       F  0.39564206  0.80411425  0.85160801    -0.13600
F1054       F  0.44319794  0.84725157  0.88875850    -0.15960
F1055       F  0.30717318  0.90324715  0.83925047    -0.15960
F1056       F  0.35268119  0.94503259  0.87922533    -0.13600
O1057       O  0.72523717  0.29537698  0.31500184    -0.70960
O1058       O  0.77127465  0.20757404  0.31850143    -0.71180
O1059       O  0.70186070  0.22984885  0.31695741    -0.71040
O1060       O  0.79476587  0.27362339  0.31662665    -0.71050
O1061       O  0.78298779  0.29733926  0.36792136    -0.71010
O1062       O  0.71193145  0.20916329  0.36971751    -0.71030
O1063       O  0.79411447  0.22001678  0.37007951    -0.70970
O1064       O  0.70122265  0.28686732  0.36730901    -0.71160
V1065       V  0.74832198  0.25161391  0.31728841     1.35240
V1066       V  0.74751046  0.25336071  0.37108296     1.35170
C1067       C  0.69955341  0.30430378  0.33630658     0.78270
C1068       C  0.79656084  0.20012655  0.34059845     0.78330
C1069       C  0.69254431  0.20641185  0.33932538     0.78200
C1070       C  0.80319803  0.29838092  0.33786309     0.78160
O1071       O  0.82792426  0.29612573  0.26050301    -0.70960
O1072       O  0.83056777  0.20599266  0.21985196    -0.71180
O1073       O  0.82931113  0.23108039  0.28621891    -0.71040
O1074       O  0.82911108  0.27104908  0.19409469    -0.71050
O1075       O  0.88234226  0.29461160  0.20374311    -0.71010
O1076       O  0.88363549  0.20954343  0.27701164    -0.71030
O1077       O  0.88404814  0.21663005  0.19712204    -0.70970
O1078       O  0.88187061  0.28795201  0.28344781    -0.71160
V1079       V  0.82976710  0.25108459  0.24015972     1.35240
V1080       V  0.88534503  0.25219705  0.24038600     1.35170
C1081       C  0.85008115  0.30603884  0.28477268     0.78270
C1082       C  0.85331973  0.19716277  0.19551431     0.78330
C1083       C  0.85220354  0.20768274  0.29608802     0.78200
C1084       C  0.85122081  0.29513147  0.18434447     0.78160
O1085       O  0.71027951  0.37743079  0.28026920    -0.70960
O1086       O  0.78325448  0.37581122  0.19181942    -0.71180
O1087       O  0.70144172  0.37493332  0.20098273    -0.71040
O1088       O  0.79248565  0.37811978  0.27123905    -0.71050
O1089       O  0.76962471  0.32719114  0.28308310    -0.71010
O1090       O  0.72558280  0.32353774  0.19269602    -0.71030
O1091       O  0.79454656  0.32543488  0.21599464    -0.70970
O1092       O  0.70095119  0.32543341  0.25904408    -0.71040
V1093       V  0.74684203  0.37881821  0.23604600     1.35240
V1094       V  0.74774725  0.32594073  0.23769918     1.35170
C1095       C  0.69116349  0.34744975  0.28272459     0.78270
C1096       C  0.80326984  0.34621417  0.19080953     0.78330
C1097       C  0.70017529  0.34446773  0.18312616     0.78200
C1098       C  0.79441912  0.34914561  0.29146132     0.78160
O1099       O  0.66791933  0.27080152  0.28384835    -0.70960
O1100       O  0.66998056  0.22631218  0.19421556    -0.71180
O1101       O  0.66820705  0.29271627  0.21664574    -0.71040
O1102       O  0.66970849  0.20486722  0.26130332    -0.71050
O1103       O  0.61593730  0.21558864  0.28361692    -0.71010
O1104       O  0.61561532  0.28028953  0.19295436    -0.71030
O1105       O  0.61674270  0.20305344  0.20493198    -0.70970
O1106       O  0.61453992  0.29261780  0.27163942    -0.71160
V1107       V  0.66860359  0.24870163  0.23892725     1.35240
V1108       V  0.61318838  0.24783799  0.23829224     1.35170
C1109       C  0.64513672  0.29505430  0.29162775     0.78270
C1110       C  0.64824687  0.20141322  0.18611642     0.78330
C1111       C  0.64603256  0.30015880  0.19155178     0.78200
C1112       C  0.64712485  0.19675825  0.28584231     0.78160
O1113       O  0.77359200  0.17355573  0.19687617    -0.70960
O1114       O  0.72766894  0.17513013  0.28653672    -0.71180
O1115       O  0.79710628  0.17576740  0.26379552    -0.71040
O1116       O  0.70434579  0.17283402  0.21986458    -0.71050
O1117       O  0.71676638  0.12152175  0.19848868    -0.71010
O1118       O  0.78742650  0.12492617  0.28768271    -0.71030
O1119       O  0.70546623  0.12332405  0.27744414    -0.70970
O1120       O  0.79824428  0.12314358  0.20851685    -0.71160
V1121       V  0.75074153  0.17381153  0.24178225     1.35240
V1122       V  0.75202275  0.12096174  0.24313579     1.35170
C1123       C  0.79941598  0.15240199  0.18872490     0.78270
C1124       C  0.70254669  0.15366747  0.29539614     0.78330
C1125       C  0.80633476  0.15506639  0.28881416     0.78200
C1126       C  0.69598015  0.15054694  0.19608387     0.78160
O1127       O  0.71272957  0.28912013  0.10861724    -0.70960
O1128       O  0.78713932  0.20326472  0.11178318    -0.71180
O1129       O  0.70514708  0.21069973  0.11110201    -0.71040
O1130       O  0.79494524  0.28061647  0.10966445    -0.71050
O1131       O  0.77077729  0.29257152  0.16088479    -0.71010
O1132       O  0.72840999  0.20303231  0.16362105    -0.71030
O1133       O  0.79674141  0.22741912  0.16329185    -0.70970
O1134       O  0.70220801  0.26825958  0.16118748    -0.71160
V1135       V  0.74993947  0.24590826  0.10797171     1.35240
V1136       V  0.74949152  0.24780105  0.16174810     1.35170
C1137       C  0.69275755  0.29161071  0.13877802     0.78270
C1138       C  0.80664579  0.20299491  0.14216743     0.78330
C1139       C  0.70369647  0.19292979  0.14195577     0.78200
C1140       C  0.79618826  0.30068344  0.13904789     0.78160
C1141       C  0.82693953  0.32908988  0.31584780    -0.01670
C1142       C  0.92304089  0.42015840  0.41379331    -0.01670
C1143       C  0.82969479  0.17696078  0.31999547    -0.01670
C1144       C  0.92088057  0.07230998  0.40772495    -0.01670
C1145       C  0.66720247  0.32674436  0.31432646    -0.01670
C1146       C  0.58284443  0.42260113  0.41600738    -0.01670
C1147       C  0.82817710  0.32480560  0.15988118    -0.01670
C1148       C  0.92147919  0.42609348  0.07003853    -0.01670
C1149       C  0.66925699  0.17484102  0.31789576    -0.01670
C1150       C  0.58083969  0.07391020  0.41053428    -0.01670
C1151       C  0.66822397  0.32276888  0.15995636    -0.01670
C1152       C  0.58179850  0.42801802  0.06997523    -0.01670
C1153       C  0.83132613  0.17329718  0.16438733    -0.01670
C1154       C  0.91866676  0.07773916  0.06356072    -0.01670
C1155       C  0.67156303  0.17024698  0.16410762    -0.01670
C1156       C  0.57845952  0.08044294  0.06427673    -0.01670
O1157       O  0.63373118  0.04442231  0.45514910    -0.70960
O1158       O  0.63494364  0.45979685  0.02654893    -0.71180
O1159       O  0.63540924  0.46675138  0.44741041    -0.71040
O1160       O  0.63336957  0.03808702  0.03406528    -0.71050
O1161       O  0.57990781  0.04664024  0.01004489    -0.71010
O1162       O  0.58231392  0.45574073  0.47094549    -0.71030
O1163       O  0.58124652  0.48209571  0.03676979    -0.70970
O1164       O  0.58106398  0.02030129  0.44443650    -0.71160
V1165       V  0.63688345  0.00226359  0.49085448     1.35240
V1166       V  0.58146044  0.50120243  0.49057412     1.35170
C1167       C  0.60314115  0.04445961  0.43518255     0.78270
C1168       C  0.60392237  0.45839890  0.04605026     0.78330
C1169       C  0.60492081  0.44683562  0.44657289     0.78200
C1170       C  0.60186816  0.05667905  0.03438371     0.78160
O1171       O  0.95348729  0.12484440  0.44837089    -0.70960
O1172       O  0.54330901  0.12883140  0.01942036    -0.71180
O1173       O  0.53555848  0.12538244  0.44069293    -0.71040
O1174       O  0.96122812  0.12827187  0.02799612    -0.71050
O1175       O  0.95200854  0.07606270  0.00765141    -0.71010
O1176       O  0.54601539  0.07513620  0.46552400    -0.71030
O1177       O  0.52079232  0.07811729  0.03192729    -0.70970
O1178       O  0.97751633  0.07323610  0.44126389    -0.71160
V1179       V  0.99826758  0.12904591  0.48405710     1.35240
V1180       V  0.49905877  0.07619715  0.48656405     1.35170
C1181       C  0.95250942  0.09421757  0.43081417     0.78270
C1182       C  0.54562379  0.10017356  0.03993912     0.78330
C1183       C  0.55565253  0.09580320  0.44061897     0.78200
C1184       C  0.94220559  0.09826781  0.03114604     0.78160
O1185       O  0.53502447  0.04935949  0.11699565    -0.70960
O1186       O  0.96518795  0.46115568  0.12028461    -0.71180
O1187       O  0.54687347  0.47175889  0.12027976    -0.71040
O1188       O  0.95350050  0.03892081  0.11710185    -0.71050
O1189       O  0.97675635  0.04675018  0.06443071    -0.71010
O1190       O  0.52317480  0.45875717  0.06914896    -0.71030
O1191       O  0.95348248  0.48137993  0.06778257    -0.70970
O1192       O  0.54602473  0.02503900  0.06574214    -0.71160
V1193       V  0.50004932  0.00539169  0.12100733     1.35240
V1194       V  0.99998301  0.50293665  0.06726424     1.35170
C1195       C  0.55446615  0.05013897  0.08654049     0.78270
C1196       C  0.94497260  0.45808377  0.09046778     0.78330
C1197       C  0.54892455  0.45153630  0.09099322     0.78200
C1198       C  0.95140830  0.05611278  0.08590280     0.78160
O1199       O  0.92055153  0.04247205  0.46516509    -0.70960
O1200       O  0.92151359  0.45544886  0.01255165    -0.71180
O1201       O  0.92238987  0.47604313  0.44462327    -0.71040
O1202       O  0.91991343  0.02172160  0.03340953    -0.71050
O1203       O  0.86625690  0.04324458  0.02129362    -0.71010
O1204       O  0.86870299  0.45342737  0.45503346    -0.71030
O1205       O  0.86728031  0.46569928  0.03430013    -0.70970
O1206       O  0.86734715  0.03083984  0.44224193    -0.71160
V1207       V  0.92056599  0.99895886  0.48891663     1.35240
V1208       V  0.86499237  0.49823769  0.48821887     1.35170
C1209       C  0.89835638  0.04991209  0.43993320     0.78270
C1210       C  0.89892050  0.44751805  0.03733926     0.78330
C1211       C  0.90030574  0.45153071  0.43632416     0.78200
C1212       C  0.89696305  0.04581146  0.04109644     0.78160
O1213       O  0.52325850  0.04185658  0.41052695    -0.70960
O1214       O  0.98009192  0.45241719  0.41361578    -0.71180
O1215       O  0.54841532  0.47667380  0.41423545    -0.71040
O1216       O  0.95416558  0.01743191  0.40999129    -0.71050
O1217       O  0.96655268  0.03808254  0.35787643    -0.71010
O1218       O  0.54008510  0.45251424  0.36249083    -0.71030
O1219       O  0.95777755  0.45995883  0.36070199    -0.70970
O1220       O  0.54851657  0.02994036  0.35957293    -0.71160
V1221       V  0.50151690  0.99714648  0.41159706     1.35240
V1222       V  0.00317096  0.49498753  0.35783947     1.35170
C1223       C  0.54923787  0.04981012  0.38911216     0.78270
C1224       C  0.95552239  0.44248075  0.39174667     0.78330
C1225       C  0.55879205  0.45230596  0.39331518     0.78200
C1226       C  0.94559015  0.04077812  0.38734271     0.78160
O1227       O  0.52463968  0.42321697  0.44770673    -0.70960
O1228       O  0.97907303  0.42615790  0.03757023    -0.71180
O1229       O  0.54788017  0.42674410  0.01459045    -0.71040
O1230       O  0.95505838  0.42255551  0.47056391    -0.71050
O1231       O  0.96713627  0.37096645  0.45017566    -0.71010
O1232       O  0.53925673  0.37572451  0.03854167    -0.71030
O1233       O  0.95719090  0.37403223  0.02982353    -0.70970
O1234       O  0.54904860  0.37281256  0.45974642    -0.71160
V1235       V  0.50164918  0.42406731  0.49256716     1.35240
V1236       V  0.00309882  0.37118632  0.49468594     1.35170
C1237       C  0.55050544  0.40197367  0.43989223     0.78270
C1238       C  0.95452755  0.40456474  0.04756140     0.78330
C1239       C  0.55792776  0.40602185  0.03928515     0.78200
C1240       C  0.94674816  0.40018586  0.44671743     0.78160
C1241       C  0.60696045  0.14192665  0.08463007     0.24410
C1242       C  0.60329447  0.10403369  0.08919229    -0.23700
C1243       C  0.62284685  0.08777721  0.11881778     0.19320
C1244       C  0.64313160  0.10865420  0.14421458     0.24350
C1245       C  0.64689043  0.14649968  0.13943012    -0.23640
C1246       C  0.62770512  0.16270345  0.10971056     0.19250
F1247       F  0.62910358  0.19913689  0.10459309    -0.13600
F1248       F  0.59252908  0.15953752  0.05514624    -0.15960
F1249       F  0.65745824  0.09122166  0.17397072    -0.15960
F1250       F  0.62197912  0.05130842  0.12384024    -0.13600
C1251       C  0.85609521  0.09669862  0.09636482     0.24410
C1252       C  0.89518502  0.10239508  0.08884585    -0.23700
C1253       C  0.91341864  0.13143436  0.10678440     0.19320
C1254       C  0.89332850  0.15458353  0.13052166     0.24350
C1255       C  0.85440830  0.14860645  0.13860650    -0.23640
C1256       C  0.83598597  0.11987519  0.12009265     0.19250
F1257       F  0.79806530  0.11387037  0.12480411    -0.13600
F1258       F  0.83690853  0.06810321  0.08217477    -0.15960
F1259       F  0.91230504  0.18356964  0.14392835    -0.15960
F1260       F  0.95124104  0.13754393  0.10155587    -0.13600
C1261       C  0.66438393  0.37158018  0.11159912     0.24410
C1262       C  0.64479587  0.34847265  0.13588825    -0.23700
C1263       C  0.60472264  0.35267885  0.13891702     0.19320
C1264       C  0.58532170  0.37850898  0.11784978     0.24350
C1265       C  0.60504146  0.40226874  0.09424923    -0.23640
C1266       C  0.64522714  0.39859942  0.09196043     0.19250
F1267       F  0.66702277  0.42047645  0.07085305    -0.13600
F1268       F  0.70287214  0.36891206  0.10770806    -0.15960
F1269       F  0.54670481  0.38032352  0.12083692    -0.15960
F1270       F  0.58339330  0.33249995  0.16222091    -0.13600
C1271       C  0.60511224  0.14758400  0.34088798     0.24410
C1272       C  0.64549370  0.14973016  0.34221267    -0.23700
C1273       C  0.66478471  0.12581661  0.36584107     0.19320
C1274       C  0.64500906  0.09978627  0.38615039     0.24350
C1275       C  0.60458153  0.09873480  0.38599761    -0.23640
C1276       C  0.58524453  0.12311451  0.36298193     0.19250
F1277       F  0.54650203  0.12302712  0.36134691    -0.13600
F1278       F  0.58364865  0.16875498  0.31877340    -0.15960
F1279       F  0.66650405  0.07571943  0.40498530    -0.15960
F1280       F  0.70346189  0.12662010  0.36836023    -0.13600
C1281       C  0.85362498  0.34919996  0.09677508     0.24410
C1282       C  0.85288633  0.35006331  0.13595688    -0.23700
C1283       C  0.87489521  0.37684948  0.15349324     0.19320
C1284       C  0.89529576  0.40263749  0.13309303     0.24350
C1285       C  0.89673850  0.40110563  0.09399565    -0.23640
C1286       C  0.87540617  0.37393865  0.07648058     0.19250
F1287       F  0.87538572  0.37126337  0.03906304    -0.13600
F1288       F  0.83435273  0.32429386  0.07696147    -0.15960
F1289       F  0.91279348  0.42904599  0.15254381    -0.15960
F1290       F  0.87593309  0.37888473  0.19092943    -0.13600
C1291       C  0.66481171  0.37298943  0.36585301     0.24410
C1292       C  0.64475951  0.35193400  0.33979614    -0.23700
C1293       C  0.60461767  0.35461171  0.33929585     0.19320
C1294       C  0.58540220  0.37685712  0.36441457     0.24350
C1295       C  0.60540691  0.39739334  0.39081390    -0.23640
C1296       C  0.64550022  0.39440363  0.39169720     0.19250
F1297       F  0.66667936  0.41134865  0.41766465    -0.13600
F1298       F  0.70356049  0.37236126  0.36700797    -0.15960
F1299       F  0.54669703  0.37825271  0.36276616    -0.15960
F1300       F  0.58325175  0.33707566  0.31396298    -0.13600
C1301       C  0.84790390  0.14592136  0.38202820     0.24410
C1302       C  0.85390383  0.15127948  0.34370730    -0.23700
C1303       C  0.88166446  0.12963200  0.32624705     0.19320
C1304       C  0.90250108  0.10358268  0.34586334     0.24350
C1305       C  0.89653451  0.09813861  0.38418095    -0.23640
C1306       C  0.86943471  0.12051765  0.40183450     0.19250
F1307       F  0.86347751  0.11791189  0.43880388    -0.13600
F1308       F  0.82073618  0.16418723  0.40108589    -0.15960
F1309       F  0.92913136  0.08495210  0.32661551    -0.15960
F1310       F  0.88833430  0.13315303  0.28946717    -0.13600
C1311       C  0.90896543  0.36103130  0.37861309     0.24410
C1312       C  0.89802435  0.39654368  0.38862071    -0.23700
C1313       C  0.86385743  0.41027066  0.37326966     0.19320
C1314       C  0.84077252  0.38880968  0.35054133     0.24350
C1315       C  0.85138518  0.35297023  0.34122167    -0.23640
C1316       C  0.88521482  0.33914913  0.35692764     0.19250
F1317       F  0.89564991  0.30411807  0.35160165    -0.13600
F1318       F  0.94320347  0.34725898  0.38875081    -0.15960
F1319       F  0.80716577  0.40324050  0.33925909    -0.15960
F1320       F  0.85267047  0.44502818  0.37923488    -0.13600
O1321       O  0.72523716  0.29537699  0.81500183    -0.70960
O1322       O  0.77127464  0.20757405  0.81850143    -0.71180
O1323       O  0.70186070  0.22984885  0.81695740    -0.71040
O1324       O  0.79476586  0.27362339  0.81662665    -0.71050
O1325       O  0.78298778  0.29733926  0.86792136    -0.71010
O1326       O  0.71193144  0.20916330  0.86971751    -0.71030
O1327       O  0.79411446  0.22001679  0.87007951    -0.70970
O1328       O  0.70122264  0.28686733  0.86730901    -0.71160
V1329       V  0.74832197  0.25161391  0.81728841     1.35240
V1330       V  0.74751045  0.25336072  0.87108296     1.35170
C1331       C  0.69955340  0.30430378  0.83630657     0.78270
C1332       C  0.79656083  0.20012655  0.84059846     0.78330
C1333       C  0.69254430  0.20641186  0.83932537     0.78200
C1334       C  0.80319803  0.29838092  0.83786309     0.78160
O1335       O  0.82792426  0.29612574  0.76050301    -0.70960
O1336       O  0.83056777  0.20599266  0.71985197    -0.71180
O1337       O  0.82931113  0.23108039  0.78621891    -0.71040
O1338       O  0.82911109  0.27104908  0.69409469    -0.71050
O1339       O  0.88234226  0.29461160  0.70374312    -0.71010
O1340       O  0.88363549  0.20954343  0.77701165    -0.71030
O1341       O  0.88404814  0.21663005  0.69712205    -0.70970
O1342       O  0.88187061  0.28795201  0.78344782    -0.71160
V1343       V  0.82976710  0.25108459  0.74015973     1.35240
V1344       V  0.88534503  0.25219705  0.74038600     1.35170
C1345       C  0.85008115  0.30603884  0.78477269     0.78270
C1346       C  0.85331973  0.19716276  0.69551432     0.78330
C1347       C  0.85220354  0.20768274  0.79608803     0.78200
C1348       C  0.85122082  0.29513147  0.68434448     0.78160
O1349       O  0.71027951  0.37743079  0.78026919    -0.70960
O1350       O  0.78325449  0.37581123  0.69181942    -0.71180
O1351       O  0.70144173  0.37493333  0.70098272    -0.71040
O1352       O  0.79248565  0.37811978  0.77123905    -0.71050
O1353       O  0.76962471  0.32719115  0.78308310    -0.71010
O1354       O  0.72558281  0.32353775  0.69269601    -0.71030
O1355       O  0.79454657  0.32543488  0.71599464    -0.70970
O1356       O  0.70095119  0.32543341  0.75904407    -0.71040
V1357       V  0.74684204  0.37881821  0.73604599     1.35240
V1358       V  0.74774726  0.32594073  0.73769918     1.35170
C1359       C  0.69116349  0.34744975  0.78272458     0.78270
C1360       C  0.80326984  0.34621417  0.69080953     0.78330
C1361       C  0.70017529  0.34446774  0.68312615     0.78200
C1362       C  0.79441912  0.34914562  0.79146131     0.78160
O1363       O  0.66791932  0.27080153  0.78384835    -0.70960
O1364       O  0.66998056  0.22631218  0.69421555    -0.71180
O1365       O  0.66820706  0.29271627  0.71664573    -0.71040
O1366       O  0.66970848  0.20486722  0.76130331    -0.71050
O1367       O  0.61593729  0.21558865  0.78361691    -0.71010
O1368       O  0.61561532  0.28028954  0.69295435    -0.71030
O1369       O  0.61674270  0.20305345  0.70493197    -0.70970
O1370       O  0.61453992  0.29261781  0.77163941    -0.71160
V1371       V  0.66860359  0.24870163  0.73892724     1.35240
V1372       V  0.61318838  0.24783800  0.73829223     1.35170
C1373       C  0.64513671  0.29505430  0.79162774     0.78270
C1374       C  0.64824687  0.20141322  0.68611641     0.78330
C1375       C  0.64603257  0.30015881  0.69155178     0.78200
C1376       C  0.64712484  0.19675825  0.78584231     0.78160
O1377       O  0.77359200  0.17355574  0.69687618    -0.70960
O1378       O  0.72766893  0.17513014  0.78653672    -0.71180
O1379       O  0.79710627  0.17576741  0.76379553    -0.71040
O1380       O  0.70434579  0.17283402  0.71986458    -0.71050
O1381       O  0.71676638  0.12152175  0.69848868    -0.71010
O1382       O  0.78742649  0.12492618  0.78768271    -0.71030
O1383       O  0.70546622  0.12332405  0.77744414    -0.70970
O1384       O  0.79824428  0.12314358  0.70851686    -0.71160
V1385       V  0.75074153  0.17381154  0.74178225     1.35240
V1386       V  0.75202275  0.12096174  0.74313579     1.35170
C1387       C  0.79941598  0.15240199  0.68872491     0.78270
C1388       C  0.70254668  0.15366748  0.79539614     0.78330
C1389       C  0.80633476  0.15506640  0.78881417     0.78200
C1390       C  0.69598015  0.15054695  0.69608387     0.78160
O1391       O  0.71272958  0.28912013  0.60861724    -0.70960
O1392       O  0.78713932  0.20326472  0.61178318    -0.71180
O1393       O  0.70514709  0.21069974  0.61110200    -0.71040
O1394       O  0.79494525  0.28061647  0.60966445    -0.71050
O1395       O  0.77077730  0.29257152  0.66088479    -0.71010
O1396       O  0.72841000  0.20303231  0.66362104    -0.71030
O1397       O  0.79674141  0.22741912  0.66329186    -0.70970
O1398       O  0.70220802  0.26825958  0.66118748    -0.71160
V1399       V  0.74993948  0.24590826  0.60797171     1.35240
V1400       V  0.74949152  0.24780105  0.66174810     1.35170
C1401       C  0.69275756  0.29161072  0.63877802     0.78270
C1402       C  0.80664580  0.20299491  0.64216743     0.78330
C1403       C  0.70369647  0.19292979  0.64195577     0.78200
C1404       C  0.79618826  0.30068344  0.63904790     0.78160
C1405       C  0.82693953  0.32908989  0.81584780    -0.01670
C1406       C  0.92304090  0.42015840  0.91379331    -0.01670
C1407       C  0.82969479  0.17696078  0.81999547    -0.01670
C1408       C  0.92088056  0.07230997  0.90772494    -0.01670
C1409       C  0.66720247  0.32674437  0.81432646    -0.01670
C1410       C  0.58284443  0.42260113  0.91600738    -0.01670
C1411       C  0.82817711  0.32480560  0.65988119    -0.01670
C1412       C  0.92147920  0.42609348  0.57003854    -0.01670
C1413       C  0.66925698  0.17484102  0.81789576    -0.01670
C1414       C  0.58083968  0.07391021  0.91053428    -0.01670
C1415       C  0.66822398  0.32276889  0.65995635    -0.01670
C1416       C  0.58179851  0.42801803  0.56997523    -0.01670
C1417       C  0.83132613  0.17329718  0.66438734    -0.01670
C1418       C  0.91866677  0.07773916  0.56356073    -0.01670
C1419       C  0.67156303  0.17024699  0.66410762    -0.01670
C1420       C  0.57845953  0.08044292  0.56427673    -0.01670
O1421       O  0.63373118  0.04442233  0.95514910    -0.70960
O1422       O  0.63494364  0.45979686  0.52654892    -0.71180
O1423       O  0.63540924  0.46675138  0.94741042    -0.71040
O1424       O  0.63336958  0.03808699  0.53406527    -0.71050
O1425       O  0.57990782  0.04664023  0.51004489    -0.71010
O1426       O  0.58231392  0.45574072  0.97094549    -0.71030
O1427       O  0.58124653  0.48209572  0.53676978    -0.70970
O1428       O  0.58106397  0.02030130  0.94443650    -0.71160
V1429       V  0.63688345  0.00226362  0.99085448     1.35240
V1430       V  0.58146044  0.50120243  0.99057412     1.35170
C1431       C  0.60314114  0.04445963  0.93518256     0.78270
C1432       C  0.60392238  0.45839891  0.54605026     0.78330
C1433       C  0.60492081  0.44683561  0.94657289     0.78200
C1434       C  0.60186817  0.05667903  0.53438371     0.78160
O1435       O  0.95348728  0.12484439  0.94837088    -0.70960
O1436       O  0.54330903  0.12883140  0.51942037    -0.71180
O1437       O  0.53555847  0.12538244  0.94069293    -0.71040
O1438       O  0.96122814  0.12827187  0.52799613    -0.71050
O1439       O  0.95200855  0.07606270  0.50765141    -0.71010
O1440       O  0.54601538  0.07513621  0.96552399    -0.71030
O1441       O  0.52079234  0.07811729  0.53192729    -0.70970
O1442       O  0.97751632  0.07323610  0.94126389    -0.71160
V1443       V  0.99826757  0.12904592  0.98405709     1.35240
V1444       V  0.49905875  0.07619715  0.98656405     1.35170
C1445       C  0.95250941  0.09421756  0.93081416     0.78270
C1446       C  0.54562381  0.10017355  0.53993912     0.78330
C1447       C  0.55565252  0.09580321  0.94061897     0.78200
C1448       C  0.94220561  0.09826781  0.53114605     0.78160
O1449       O  0.53502449  0.04935948  0.61699566    -0.70960
O1450       O  0.96518797  0.46115568  0.62028462    -0.71180
O1451       O  0.54687348  0.47175889  0.62027975    -0.71040
O1452       O  0.95350050  0.03892082  0.61710185    -0.71050
O1453       O  0.97675636  0.04675018  0.56443071    -0.71010
O1454       O  0.52317480  0.45875718  0.56914896    -0.71030
O1455       O  0.95348248  0.48137993  0.56778258    -0.70970
O1456       O  0.54602474  0.02503899  0.56574214    -0.71160
V1457       V  0.50004933  0.00539168  0.62100733     1.35240
V1458       V  0.99998302  0.50293666  0.56726424     1.35170
C1459       C  0.55446616  0.05013896  0.58654049     0.78270
C1460       C  0.94497261  0.45808378  0.59046779     0.78330
C1461       C  0.54892456  0.45153631  0.59099322     0.78200
C1462       C  0.95140831  0.05611278  0.58590281     0.78160
O1463       O  0.92055152  0.04247204  0.96516508    -0.70960
O1464       O  0.92151359  0.45544886  0.51255166    -0.71180
O1465       O  0.92238987  0.47604313  0.94462327    -0.71040
O1466       O  0.91991343  0.02172161  0.53340954    -0.71050
O1467       O  0.86625691  0.04324459  0.52129363    -0.71010
O1468       O  0.86870300  0.45342737  0.95503345    -0.71030
O1469       O  0.86728032  0.46569928  0.53430014    -0.70970
O1470       O  0.86734714  0.03083982  0.94224192    -0.71160
V1471       V  0.92056599  0.99895885  0.98891663     1.35240
V1472       V  0.86499237  0.49823768  0.98821886     1.35170
C1473       C  0.89835638  0.04991208  0.93993320     0.78270
C1474       C  0.89892051  0.44751805  0.53733927     0.78330
C1475       C  0.90030575  0.45153071  0.93632415     0.78200
C1476       C  0.89696306  0.04581147  0.54109645     0.78160
O1477       O  0.52325850  0.04185658  0.91052694    -0.70960
O1478       O  0.98009193  0.45241719  0.91361578    -0.71180
O1479       O  0.54841532  0.47667380  0.91423545    -0.71040
O1480       O  0.95416558  0.01743191  0.90999128    -0.71050
O1481       O  0.96655268  0.03808254  0.85787642    -0.71010
O1482       O  0.54008510  0.45251424  0.86249083    -0.71030
O1483       O  0.95777756  0.45995883  0.86070199    -0.70970
O1484       O  0.54851657  0.02994037  0.85957293    -0.71160
V1485       V  0.50151690  0.99714648  0.91159706     1.35240
V1486       V  0.00317098  0.49498754  0.85783947     1.35170
C1487       C  0.54923787  0.04981013  0.88911216     0.78270
C1488       C  0.95552241  0.44248075  0.89174667     0.78330
C1489       C  0.55879205  0.45230596  0.89331518     0.78200
C1490       C  0.94559015  0.04077812  0.88734270     0.78160
O1491       O  0.52463967  0.42321697  0.94770674    -0.70960
O1492       O  0.97907303  0.42615790  0.53757023    -0.71180
O1493       O  0.54788017  0.42674410  0.51459045    -0.71040
O1494       O  0.95505839  0.42255551  0.97056391    -0.71050
O1495       O  0.96713628  0.37096645  0.95017566    -0.71010
O1496       O  0.53925673  0.37572452  0.53854167    -0.71030
O1497       O  0.95719090  0.37403223  0.52982353    -0.70970
O1498       O  0.54904859  0.37281256  0.95974642    -0.71160
V1499       V  0.50164918  0.42406731  0.99256716     1.35240
V1500       V  0.00309883  0.37118631  0.99468593     1.35170
C1501       C  0.55050543  0.40197367  0.93989223     0.78270
C1502       C  0.95452755  0.40456475  0.54756141     0.78330
C1503       C  0.55792777  0.40602186  0.53928515     0.78200
C1504       C  0.94674816  0.40018586  0.94671742     0.78160
C1505       C  0.60696049  0.14192663  0.58463005     0.24410
C1506       C  0.60329449  0.10403368  0.58919229    -0.23700
C1507       C  0.62284685  0.08777721  0.61881780     0.19320
C1508       C  0.64313159  0.10865421  0.64421460     0.24350
C1509       C  0.64689043  0.14649968  0.63943012    -0.23640
C1510       C  0.62770515  0.16270344  0.60971054     0.19250
F1511       F  0.62910362  0.19913688  0.60459305    -0.13600
F1512       F  0.59252917  0.15953748  0.55514618    -0.15960
F1513       F  0.65745820  0.09122167  0.67397076    -0.15960
F1514       F  0.62197910  0.05130842  0.62384028    -0.13600
C1515       C  0.85609523  0.09669861  0.59636484     0.24410
C1516       C  0.89518503  0.10239508  0.58884586    -0.23700
C1517       C  0.91341864  0.13143437  0.60678440     0.19320
C1518       C  0.89332849  0.15458355  0.63052165     0.24350
C1519       C  0.85440830  0.14860645  0.63860651    -0.23640
C1520       C  0.83598598  0.11987518  0.62009267     0.19250
F1521       F  0.79806532  0.11387034  0.62480415    -0.13600
F1522       F  0.83690855  0.06810318  0.58217481    -0.15960
F1523       F  0.91230502  0.18356967  0.64392832    -0.15960
F1524       F  0.95124104  0.13754395  0.60155586    -0.13600
C1525       C  0.66438393  0.37158016  0.61159909     0.24410
C1526       C  0.64479587  0.34847265  0.63588825    -0.23700
C1527       C  0.60472265  0.35267888  0.63891704     0.19320
C1528       C  0.58532171  0.37850901  0.61784980     0.24350
C1529       C  0.60504147  0.40226874  0.59424922    -0.23640
C1530       C  0.64522714  0.39859939  0.59196039     0.19250
F1531       F  0.66702277  0.42047638  0.57085295    -0.13600
F1532       F  0.70287214  0.36891201  0.60770801    -0.15960
F1533       F  0.54670483  0.38032357  0.62083697    -0.15960
F1534       F  0.58339332  0.33250002  0.66222098    -0.13600
C1535       C  0.60511223  0.14758402  0.84088799     0.24410
C1536       C  0.64549369  0.14973017  0.84221267    -0.23700
C1537       C  0.66478470  0.12581661  0.86584106     0.19320
C1538       C  0.64500905  0.09978627  0.88615038     0.24350
C1539       C  0.60458152  0.09873481  0.88599761    -0.23640
C1540       C  0.58524452  0.12311453  0.86298193     0.19250
F1541       F  0.54650202  0.12302714  0.86134692    -0.13600
F1542       F  0.58364864  0.16875502  0.81877343    -0.15960
F1543       F  0.66650404  0.07571942  0.90498527    -0.15960
F1544       F  0.70346189  0.12662010  0.86836021    -0.13600
C1545       C  0.85362499  0.34919997  0.59677508     0.24410
C1546       C  0.85288634  0.35006331  0.63595689    -0.23700
C1547       C  0.87489522  0.37684948  0.65349325     0.19320
C1548       C  0.89529578  0.40263749  0.63309303     0.24350
C1549       C  0.89673851  0.40110564  0.59399565    -0.23640
C1550       C  0.87540617  0.37393865  0.57648058     0.19250
F1551       F  0.87538572  0.37126338  0.53906304    -0.13600
F1552       F  0.83435273  0.32429387  0.57696147    -0.15960
F1553       F  0.91279350  0.42904598  0.65254382    -0.15960
F1554       F  0.87593310  0.37888473  0.69092944    -0.13600
C1555       C  0.66481171  0.37298944  0.86585300     0.24410
C1556       C  0.64475951  0.35193400  0.83979613    -0.23700
C1557       C  0.60461766  0.35461170  0.83929586     0.19320
C1558       C  0.58540220  0.37685712  0.86441458     0.24350
C1559       C  0.60540690  0.39739334  0.89081390    -0.23640
C1560       C  0.64550022  0.39440364  0.89169718     0.19250
F1561       F  0.66667936  0.41134867  0.91766463    -0.13600
F1562       F  0.70356049  0.37236129  0.86700794    -0.15960
F1563       F  0.54669702  0.37825270  0.86276617    -0.15960
F1564       F  0.58325174  0.33707564  0.81396300    -0.13600
C1565       C  0.84790392  0.14592138  0.88202821     0.24410
C1566       C  0.85390382  0.15127948  0.84370730    -0.23700
C1567       C  0.88166443  0.12963198  0.82624704     0.19320
C1568       C  0.90250104  0.10358264  0.84586333     0.24350
C1569       C  0.89653450  0.09813860  0.88418095    -0.23640
C1570       C  0.86943472  0.12051767  0.90183450     0.19250
F1571       F  0.86347755  0.11791192  0.93880389    -0.13600
F1572       F  0.82073623  0.16418728  0.90108591    -0.15960
F1573       F  0.92913127  0.08495202  0.82661548    -0.15960
F1574       F  0.88833425  0.13315299  0.78946715    -0.13600
C1575       C  0.90896543  0.36103130  0.87861310     0.24410
C1576       C  0.89802436  0.39654368  0.88862070    -0.23700
C1577       C  0.86385745  0.41027067  0.87326965     0.19320
C1578       C  0.84077253  0.38880968  0.85054132     0.24350
C1579       C  0.85138518  0.35297023  0.84122167    -0.23640
C1580       C  0.88521481  0.33914913  0.85692765     0.19250
F1581       F  0.89564990  0.30411806  0.85160166    -0.13600
F1582       F  0.94320346  0.34725897  0.88875082    -0.15960
F1583       F  0.80716579  0.40324052  0.83925907    -0.15960
F1584       F  0.85267050  0.44502819  0.87923485    -0.13600
O1585       O  0.72523640  0.79537724  0.31500158    -0.70960
O1586       O  0.77127416  0.70757461  0.31850156    -0.71180
O1587       O  0.70186017  0.72984900  0.31695727    -0.71040
O1588       O  0.79476507  0.77362414  0.31662679    -0.71050
O1589       O  0.78298675  0.79733995  0.36792145    -0.71010
O1590       O  0.71193074  0.70916367  0.36971751    -0.71030
O1591       O  0.79411373  0.72001733  0.37007984    -0.70970
O1592       O  0.70122171  0.78686768  0.36730871    -0.71160
V1593       V  0.74832134  0.75161433  0.31728840     1.35240
V1594       V  0.74750960  0.75336121  0.37108297     1.35170
C1595       C  0.69955255  0.80430400  0.33630619     0.78270
C1596       C  0.79656022  0.70012720  0.34059872     0.78330
C1597       C  0.69254374  0.70641207  0.33932530     0.78200
C1598       C  0.80319702  0.79838177  0.33786320     0.78160
O1599       O  0.82792365  0.79612647  0.26050333    -0.70960
O1600       O  0.83056781  0.70599331  0.21985261    -0.71180
O1601       O  0.82931057  0.73108119  0.28621939    -0.71040
O1602       O  0.82911105  0.77104954  0.19409505    -0.71050
O1603       O  0.88234204  0.79461235  0.20374371    -0.71010
O1604       O  0.88363517  0.70954462  0.27701267    -0.71030
O1605       O  0.88404833  0.71663075  0.19712305    -0.70970
O1606       O  0.88186995  0.78795318  0.28344854    -0.71160
V1607       V  0.82976683  0.75108528  0.24016019     1.35240
V1608       V  0.88534477  0.75219801  0.24038685     1.35170
C1609       C  0.85008035  0.80603981  0.28477307     0.78270
C1610       C  0.85331998  0.69716337  0.19551517     0.78330
C1611       C  0.85220305  0.70768373  0.29608878     0.78200
C1612       C  0.85122075  0.79513196  0.18434484     0.78160
O1613       O  0.71027849  0.87743089  0.28026842    -0.70960
O1614       O  0.78325391  0.87581138  0.19181898    -0.71180
O1615       O  0.70144120  0.87493306  0.20098199    -0.71040
O1616       O  0.79248469  0.87812031  0.27123859    -0.71050
O1617       O  0.76962387  0.82719177  0.28308306    -0.71010
O1618       O  0.72558259  0.82353751  0.19269573    -0.71030
O1619       O  0.79454627  0.82543530  0.21599459    -0.70970
O1620       O  0.70095067  0.82543330  0.25904360    -0.71040
V1621       V  0.74684125  0.87881835  0.23604540     1.35240
V1622       V  0.74774682  0.82594089  0.23769894     1.35170
C1623       C  0.69116270  0.84744971  0.28272392     0.78270
C1624       C  0.80326951  0.84621447  0.19080935     0.78330
C1625       C  0.70017506  0.84446737  0.18312563     0.78200
C1626       C  0.79441810  0.84914642  0.29146126     0.78160
O1627       O  0.66791868  0.77080142  0.28384799    -0.70960
O1628       O  0.66998071  0.72631184  0.19421529    -0.71180
O1629       O  0.66820684  0.79271595  0.21664525    -0.71040
O1630       O  0.66970823  0.70486704  0.26130312    -0.71050
O1631       O  0.61593692  0.71558849  0.28361634    -0.71010
O1632       O  0.61561529  0.78028904  0.19295356    -0.71030
O1633       O  0.61674284  0.70305301  0.20493143    -0.70970
O1634       O  0.61453941  0.79261774  0.27163852    -0.71160
V1635       V  0.66860336  0.74870140  0.23892691     1.35240
V1636       V  0.61318817  0.74783769  0.23829153     1.35170
C1637       C  0.64513603  0.79505424  0.29162711     0.78270
C1638       C  0.64824714  0.70141281  0.18611606     0.78330
C1639       C  0.64603249  0.80015835  0.19155115     0.78200
C1640       C  0.64712448  0.69675814  0.28584204     0.78160
O1641       O  0.77359229  0.67355598  0.19687665    -0.70960
O1642       O  0.72766872  0.67513030  0.28653693    -0.71180
O1643       O  0.79710625  0.67576785  0.26379596    -0.71040
O1644       O  0.70434593  0.67283390  0.21986464    -0.71050
O1645       O  0.71676694  0.62152166  0.19848892    -0.71010
O1646       O  0.78742658  0.62492665  0.28768326    -0.71030
O1647       O  0.70546628  0.62332414  0.27744433    -0.70970
O1648       O  0.79824475  0.62314394  0.20851756    -0.71160
V1649       V  0.75074156  0.67381172  0.24178256     1.35240
V1650       V  0.75202304  0.62096194  0.24313622     1.35170
C1651       C  0.79941644  0.65240236  0.18872562     0.78270
C1652       C  0.70254648  0.65366760  0.29539625     0.78330
C1653       C  0.80633480  0.65506691  0.28881461     0.78200
C1654       C  0.69598056  0.65054674  0.19608392     0.78160
O1655       O  0.71272990  0.78911971  0.10861691    -0.70960
O1656       O  0.78714003  0.70326464  0.11178361    -0.71180
O1657       O  0.70514776  0.71069928  0.11110191    -0.71040
O1658       O  0.79494557  0.78061639  0.10966454    -0.71050
O1659       O  0.77077735  0.79257154  0.16088472    -0.71010
O1660       O  0.72841038  0.70303217  0.16362112    -0.71030
O1661       O  0.79674170  0.72741933  0.16329223    -0.70970
O1662       O  0.70220811  0.76825924  0.16118713    -0.71160
V1663       V  0.74993999  0.74590799  0.10797173     1.35240
V1664       V  0.74949172  0.74780099  0.16174810     1.35170
C1665       C  0.69275769  0.79161029  0.13877757     0.78270
C1666       C  0.80664633  0.70299508  0.14216797     0.78330
C1667       C  0.70369703  0.69292945  0.14195573     0.78200
C1668       C  0.79618840  0.80068346  0.13904791     0.78160
C1669       C  0.82693849  0.82909089  0.31584791    -0.01670
C1670       C  0.92304331  0.92015713  0.41379260    -0.01670
C1671       C  0.82969429  0.67696153  0.31999598    -0.01670
C1672       C  0.92087967  0.57231134  0.40772630    -0.01670
C1673       C  0.66720168  0.82674433  0.31432585    -0.01670
C1674       C  0.58284666  0.92260150  0.41600828    -0.01670
C1675       C  0.82817706  0.82480583  0.15988122    -0.01670
C1676       C  0.92147970  0.92609290  0.07003793    -0.01670
C1677       C  0.66925656  0.67484110  0.31789574    -0.01670
C1678       C  0.58083865  0.57391003  0.41053368    -0.01670
C1679       C  0.66822396  0.82276841  0.15995580    -0.01670
C1680       C  0.58179912  0.92801885  0.06997614    -0.01670
C1681       C  0.83132664  0.67329759  0.16438818    -0.01670
C1682       C  0.91866763  0.57773974  0.06356199    -0.01670
C1683       C  0.67156356  0.67024658  0.16410746    -0.01670
C1684       C  0.57846035  0.58044229  0.06427636    -0.01670
O1685       O  0.63373036  0.54442148  0.45514786    -0.70960
O1686       O  0.63494451  0.95979799  0.02655036    -0.71180
O1687       O  0.63541100  0.96675225  0.44741172    -0.71040
O1688       O  0.63336964  0.53808592  0.03406414    -0.71050
O1689       O  0.57990772  0.54663978  0.01004439    -0.71010
O1690       O  0.58231573  0.95574097  0.47094643    -0.71030
O1691       O  0.58124707  0.98209640  0.03677058    -0.70970
O1692       O  0.58106266  0.52030110  0.44443589    -0.71160
V1693       V  0.63688258  0.50226262  0.49085316     1.35240
V1694       V  0.58146136  0.00120281  0.49057482     1.35170
C1695       C  0.60314005  0.54445916  0.43518169     0.78270
C1696       C  0.60392303  0.95839983  0.04605137     0.78330
C1697       C  0.60492284  0.94683611  0.44657392     0.78200
C1698       C  0.60186845  0.55667829  0.03438300     0.78160
O1699       O  0.95348714  0.62484529  0.44837208    -0.70960
O1700       O  0.54330979  0.62883115  0.01942052    -0.71180
O1701       O  0.53555829  0.62538260  0.44069312    -0.71040
O1702       O  0.96122905  0.62827231  0.02799721    -0.71050
O1703       O  0.95200874  0.57606336  0.00765230    -0.71010
O1704       O  0.54601508  0.57513622  0.46552389    -0.71030
O1705       O  0.52079278  0.57811716  0.03192745    -0.70970
O1706       O  0.97751581  0.57323693  0.44126443    -0.71160
V1707       V  0.99826795  0.62904625  0.48405775     1.35240
V1708       V  0.49905870  0.57619748  0.48656442     1.35170
C1709       C  0.95250889  0.59421860  0.43081517     0.78270
C1710       C  0.54562452  0.60017321  0.03993914     0.78330
C1711       C  0.55565208  0.59580319  0.44061878     0.78200
C1712       C  0.94220627  0.59826841  0.03114718     0.78160
O1713       O  0.53502562  0.54935894  0.11699565    -0.70960
O1714       O  0.96518765  0.96115565  0.12028424    -0.71180
O1715       O  0.54687310  0.97175960  0.12028022    -0.71040
O1716       O  0.95350153  0.53892096  0.11710265    -0.71050
O1717       O  0.97675693  0.54675038  0.06443133    -0.71010
O1718       O  0.52317506  0.95875744  0.06914929    -0.71030
O1719       O  0.95348251  0.98137962  0.06778201    -0.70970
O1720       O  0.54602510  0.52503859  0.06574193    -0.71160
V1721       V  0.50005007  0.50539141  0.12100750     1.35240
V1722       V  0.99998286  0.00293670  0.06726408     1.35170
C1723       C  0.55446697  0.55013841  0.08654028     0.78270
C1724       C  0.94497262  0.95808349  0.09046723     0.78330
C1725       C  0.54892471  0.95153692  0.09099379     0.78200
C1726       C  0.95140919  0.55611310  0.08590372     0.78160
O1727       O  0.92055110  0.54247303  0.46516624    -0.70960
O1728       O  0.92151449  0.95544805  0.01255093    -0.71180
O1729       O  0.92239140  0.97604197  0.44462252    -0.71040
O1730       O  0.91991360  0.52172233  0.03341050    -0.71050
O1731       O  0.86625709  0.54324584  0.02129532    -0.71010
O1732       O  0.86870452  0.95342582  0.45503199    -0.71030
O1733       O  0.86728081  0.96569799  0.03429869    -0.70970
O1734       O  0.86734629  0.53084145  0.44224367    -0.71160
V1735       V  0.92056532  0.49895976  0.48891755     1.35240
V1736       V  0.86499305  0.99823624  0.48821728     1.35170
C1737       C  0.89835570  0.54991343  0.43993470     0.78270
C1738       C  0.89892117  0.94751710  0.03733829     0.78330
C1739       C  0.90030762  0.95152929  0.43632323     0.78200
C1740       C  0.89696352  0.54581234  0.04109778     0.78160
O1741       O  0.52325723  0.54185692  0.41052688    -0.70960
O1742       O  0.98009396  0.95241647  0.41361550    -0.71180
O1743       O  0.54841702  0.97667374  0.41423607    -0.71040
O1744       O  0.95416426  0.51743295  0.40999218    -0.71050
O1745       O  0.96655028  0.53808306  0.35787689    -0.71010
O1746       O  0.54008766  0.95251393  0.36249135    -0.71030
O1747       O  0.95778008  0.95995802  0.36070151    -0.70970
O1748       O  0.54851441  0.52994070  0.35957247    -0.71160
V1749       V  0.50151531  0.49714698  0.41159714     1.35240
V1750       V  0.00317338  0.99498701  0.35783945     1.35170
C1751       C  0.54923634  0.54981035  0.38911178     0.78270
C1752       C  0.95552473  0.94247986  0.39174616     0.78330
C1753       C  0.55879419  0.95230596  0.39331593     0.78200
C1754       C  0.94558853  0.54077912  0.38734365     0.78160
O1755       O  0.52464162  0.92321703  0.44770733    -0.70960
O1756       O  0.97907391  0.92615767  0.03757026    -0.71180
O1757       O  0.54788124  0.92674466  0.01459115    -0.71040
O1758       O  0.95506003  0.92255474  0.47056366    -0.71050
O1759       O  0.96713907  0.87096589  0.45017564    -0.71010
O1760       O  0.53925823  0.87572498  0.03854241    -0.71030
O1761       O  0.95719247  0.87403179  0.02982344    -0.70970
O1762       O  0.54905102  0.87281289  0.45974740    -0.71160
V1763       V  0.50165056  0.92406723  0.49256743     1.35240
V1764       V  0.00310089  0.87118626  0.49468637     1.35170
C1765       C  0.55050772  0.90197396  0.43989317     0.78270
C1766       C  0.95452854  0.90456431  0.04756124     0.78330
C1767       C  0.55792888  0.90602252  0.03928592     0.78200
C1768       C  0.94675052  0.90018497  0.44671705     0.78160
C1769       C  0.60696158  0.64192597  0.08462954     0.24410
C1770       C  0.60329562  0.60403299  0.08919173    -0.23700
C1771       C  0.62284807  0.58777653  0.11881719     0.19320
C1772       C  0.64313272  0.60865357  0.14421406     0.24350
C1773       C  0.64689126  0.64649911  0.13942979    -0.23640
C1774       C  0.62770601  0.66270282  0.10971016     0.19250
F1775       F  0.62910431  0.69913628  0.10459275    -0.13600
F1776       F  0.59253046  0.65953684  0.05514560    -0.15960
F1777       F  0.65745957  0.59122098  0.17397008    -0.15960
F1778       F  0.62198046  0.55130773  0.12383954    -0.13600
C1779       C  0.85609637  0.59669845  0.09636680     0.24410
C1780       C  0.89518597  0.60239550  0.08884728    -0.23700
C1781       C  0.91341933  0.63143522  0.10678533     0.19320
C1782       C  0.89332899  0.65458445  0.13052238     0.24350
C1783       C  0.85440899  0.64860683  0.13860763    -0.23640
C1784       C  0.83598697  0.61987504  0.12009438     0.19250
F1785       F  0.79806642  0.61386971  0.12480611    -0.13600
F1786       F  0.83691006  0.56810236  0.08217768    -0.15960
F1787       F  0.91230506  0.68357111  0.14392848    -0.15960
F1788       F  0.95124159  0.63754523  0.10155645    -0.13600
C1789       C  0.66438404  0.87157948  0.11159851     0.24410
C1790       C  0.64479592  0.84847231  0.13588792    -0.23700
C1791       C  0.60472286  0.85267935  0.13891754     0.19320
C1792       C  0.58532210  0.87851000  0.11785083     0.24350
C1793       C  0.60504196  0.90226945  0.09425004    -0.23640
C1794       C  0.64522750  0.89859915  0.09196029     0.19250
F1795       F  0.66702323  0.92047548  0.07085227    -0.13600
F1796       F  0.70287212  0.86891058  0.10770675    -0.15960
F1797       F  0.54670531  0.88032525  0.12083865    -0.15960
F1798       F  0.58339357  0.83250092  0.16222191    -0.13600
C1799       C  0.60511156  0.64758540  0.34088921     0.24410
C1800       C  0.64549316  0.64973027  0.34221273    -0.23700
C1801       C  0.66478406  0.62581541  0.36583990     0.19320
C1802       C  0.64500814  0.59978482  0.38614871     0.24350
C1803       C  0.60458058  0.59873450  0.38599693    -0.23640
C1804       C  0.58524372  0.62311544  0.36298252     0.19250
F1805       F  0.54650117  0.62302904  0.36134836    -0.13600
F1806       F  0.58364788  0.66875860  0.31877694    -0.15960
F1807       F  0.66650284  0.57571642  0.40498191    -0.15960
F1808       F  0.70346131  0.62661789  0.36835836    -0.13600
C1809       C  0.85362612  0.84919900  0.09677501     0.24410
C1810       C  0.85288647  0.85006333  0.13595680    -0.23700
C1811       C  0.87489464  0.87685016  0.15349294     0.19320
C1812       C  0.89529530  0.90263794  0.13309249     0.24350
C1813       C  0.89673893  0.90110518  0.09399516    -0.23640
C1814       C  0.87540734  0.87393754  0.07648033     0.19250
F1815       F  0.87538770  0.87126143  0.03906285    -0.13600
F1816       F  0.83435506  0.82429191  0.07696161    -0.15960
F1817       F  0.91279207  0.92904719  0.15254301    -0.15960
F1818       F  0.87593179  0.87888626  0.19092910    -0.13600
C1819       C  0.66481252  0.87299209  0.36584952     0.24410
C1820       C  0.64475920  0.85193396  0.33979574    -0.23700
C1821       C  0.60461713  0.85460879  0.33929915     0.19320
C1822       C  0.58540268  0.87685516  0.36441769     0.24350
C1823       C  0.60540855  0.89739374  0.39081435    -0.23640
C1824       C  0.64550213  0.89440659  0.39169420     0.19250
F1825       F  0.66668271  0.91135514  0.41765811    -0.13600
F1826       F  0.70356146  0.87236600  0.36700106    -0.15960
F1827       F  0.54669730  0.87824918  0.36277198    -0.15960
F1828       F  0.58324981  0.83706823  0.31397060    -0.13600
C1829       C  0.84789797  0.64591804  0.38202774     0.24410
C1830       C  0.85390289  0.65128041  0.34370820    -0.23700
C1831       C  0.88166852  0.62963759  0.32624954     0.19320
C1832       C  0.90250677  0.60359000  0.34586647     0.24350
C1833       C  0.89653388  0.59814018  0.38418230    -0.23640
C1834       C  0.86942875  0.62051458  0.40183444     0.19250
F1835       F  0.86346656  0.61790502  0.43880277    -0.13600
F1836       F  0.82072454  0.66417865  0.40108316    -0.15960
F1837       F  0.92914577  0.58496775  0.32662157    -0.15960
F1838       F  0.88834262  0.63316211  0.28947075    -0.13600
C1839       C  0.90896294  0.86102777  0.37861691     0.24410
C1840       C  0.89802643  0.89654273  0.38861989    -0.23700
C1841       C  0.86386320  0.91027293  0.37326430     0.19320
C1842       C  0.84077677  0.88881276  0.35053660     0.24350
C1843       C  0.85138474  0.85297088  0.34122159    -0.23640
C1844       C  0.88521117  0.83914690  0.35693124     0.19250
F1845       F  0.89564214  0.80411429  0.35160794    -0.13600
F1846       F  0.94319800  0.84725165  0.38875842    -0.15960
F1847       F  0.80717310  0.90324708  0.33925058    -0.15960
F1848       F  0.85268108  0.94503254  0.37922544    -0.13600
O1849       O  0.72523640  0.79537724  0.81500158    -0.70960
O1850       O  0.77127416  0.70757461  0.81850157    -0.71180
O1851       O  0.70186017  0.72984900  0.81695727    -0.71040
O1852       O  0.79476507  0.77362415  0.81662679    -0.71050
O1853       O  0.78298675  0.79733996  0.86792145    -0.71010
O1854       O  0.71193074  0.70916368  0.86971752    -0.71030
O1855       O  0.79411373  0.72001734  0.87007985    -0.70970
O1856       O  0.70122171  0.78686769  0.86730871    -0.71160
V1857       V  0.74832134  0.75161433  0.81728841     1.35240
V1858       V  0.74750960  0.75336122  0.87108298     1.35170
C1859       C  0.69955255  0.80430401  0.83630619     0.78270
C1860       C  0.79656022  0.70012720  0.84059873     0.78330
C1861       C  0.69254374  0.70641207  0.83932531     0.78200
C1862       C  0.80319702  0.79838178  0.83786320     0.78160
O1863       O  0.82792365  0.79612647  0.76050333    -0.70960
O1864       O  0.83056781  0.70599331  0.71985261    -0.71180
O1865       O  0.82931057  0.73108119  0.78621940    -0.71040
O1866       O  0.82911105  0.77104954  0.69409506    -0.71050
O1867       O  0.88234204  0.79461235  0.70374371    -0.71010
O1868       O  0.88363518  0.70954463  0.77701268    -0.71030
O1869       O  0.88404833  0.71663075  0.69712306    -0.70970
O1870       O  0.88186995  0.78795319  0.78344854    -0.71160
V1871       V  0.82976683  0.75108528  0.74016019     1.35240
V1872       V  0.88534476  0.75219802  0.74038685     1.35170
C1873       C  0.85008034  0.80603982  0.78477307     0.78270
C1874       C  0.85331998  0.69716337  0.69551518     0.78330
C1875       C  0.85220306  0.70768374  0.79608878     0.78200
C1876       C  0.85122074  0.79513196  0.68434484     0.78160
O1877       O  0.71027848  0.87743089  0.78026841    -0.70960
O1878       O  0.78325390  0.87581138  0.69181897    -0.71180
O1879       O  0.70144119  0.87493306  0.70098198    -0.71040
O1880       O  0.79248467  0.87812032  0.77123858    -0.71050
O1881       O  0.76962387  0.82719178  0.78308305    -0.71010
O1882       O  0.72558259  0.82353750  0.69269573    -0.71030
O1883       O  0.79454626  0.82543530  0.71599459    -0.70970
O1884       O  0.70095066  0.82543330  0.75904360    -0.71040
V1885       V  0.74684123  0.87881834  0.73604539     1.35240
V1886       V  0.74774681  0.82594089  0.73769894     1.35170
C1887       C  0.69116269  0.84744971  0.78272392     0.78270
C1888       C  0.80326950  0.84621447  0.69080935     0.78330
C1889       C  0.70017505  0.84446736  0.68312562     0.78200
C1890       C  0.79441809  0.84914642  0.79146126     0.78160
O1891       O  0.66791868  0.77080141  0.78384799    -0.70960
O1892       O  0.66998071  0.72631183  0.69421529    -0.71180
O1893       O  0.66820684  0.79271594  0.71664525    -0.71040
O1894       O  0.66970823  0.70486704  0.76130313    -0.71050
O1895       O  0.61593692  0.71558848  0.78361634    -0.71010
O1896       O  0.61561529  0.78028902  0.69295356    -0.71030
O1897       O  0.61674284  0.70305300  0.70493144    -0.70970
O1898       O  0.61453940  0.79261774  0.77163852    -0.71160
V1899       V  0.66860336  0.74870140  0.73892692     1.35240
V1900       V  0.61318817  0.74783768  0.73829153     1.35170
C1901       C  0.64513603  0.79505424  0.79162711     0.78270
C1902       C  0.64824714  0.70141280  0.68611607     0.78330
C1903       C  0.64603248  0.80015834  0.69155115     0.78200
C1904       C  0.64712448  0.69675814  0.78584205     0.78160
O1905       O  0.77359229  0.67355598  0.69687666    -0.70960
O1906       O  0.72766872  0.67513030  0.78653694    -0.71180
O1907       O  0.79710625  0.67576785  0.76379597    -0.71040
O1908       O  0.70434594  0.67283390  0.71986465    -0.71050
O1909       O  0.71676694  0.62152165  0.69848893    -0.71010
O1910       O  0.78742658  0.62492666  0.78768327    -0.71030
O1911       O  0.70546628  0.62332413  0.77744435    -0.70970
O1912       O  0.79824475  0.62314394  0.70851757    -0.71160
V1913       V  0.75074156  0.67381172  0.74178257     1.35240
V1914       V  0.75202305  0.62096194  0.74313623     1.35170
C1915       C  0.79941645  0.65240236  0.68872563     0.78270
C1916       C  0.70254648  0.65366760  0.79539626     0.78330
C1917       C  0.80633480  0.65506691  0.78881462     0.78200
C1918       C  0.69598057  0.65054673  0.69608393     0.78160
O1919       O  0.71272989  0.78911970  0.60861691    -0.70960
O1920       O  0.78714003  0.70326464  0.61178361    -0.71180
O1921       O  0.70514776  0.71069927  0.61110191    -0.71040
O1922       O  0.79494557  0.78061638  0.60966454    -0.71050
O1923       O  0.77077735  0.79257154  0.66088472    -0.71010
O1924       O  0.72841038  0.70303216  0.66362112    -0.71030
O1925       O  0.79674170  0.72741932  0.66329223    -0.70970
O1926       O  0.70220811  0.76825923  0.66118713    -0.71160
V1927       V  0.74993999  0.74590798  0.60797174     1.35240
V1928       V  0.74949172  0.74780099  0.66174811     1.35170
C1929       C  0.69275768  0.79161028  0.63877757     0.78270
C1930       C  0.80664633  0.70299508  0.64216798     0.78330
C1931       C  0.70369704  0.69292944  0.64195574     0.78200
C1932       C  0.79618839  0.80068346  0.63904791     0.78160
C1933       C  0.82693848  0.82909090  0.81584790    -0.01670
C1934       C  0.92304333  0.92015712  0.91379260    -0.01670
C1935       C  0.82969429  0.67696154  0.81999599    -0.01670
C1936       C  0.92087968  0.57231134  0.90772630    -0.01670
C1937       C  0.66720168  0.82674433  0.81432585    -0.01670
C1938       C  0.58284668  0.92260151  0.91600828    -0.01670
C1939       C  0.82817706  0.82480583  0.65988122    -0.01670
C1940       C  0.92147970  0.92609291  0.57003794    -0.01670
C1941       C  0.66925656  0.67484110  0.81789575    -0.01670
C1942       C  0.58083866  0.57391003  0.91053369    -0.01670
C1943       C  0.66822395  0.82276840  0.65995580    -0.01670
C1944       C  0.58179911  0.92801884  0.56997614    -0.01670
C1945       C  0.83132664  0.67329759  0.66438818    -0.01670
C1946       C  0.91866763  0.57773975  0.56356200    -0.01670
C1947       C  0.67156356  0.67024657  0.66410747    -0.01670
C1948       C  0.57846035  0.58044230  0.56427636    -0.01670
O1949       O  0.63373036  0.54442147  0.95514788    -0.70960
O1950       O  0.63494450  0.95979797  0.52655036    -0.71180
O1951       O  0.63541101  0.96675227  0.94741173    -0.71040
O1952       O  0.63336965  0.53808593  0.53406413    -0.71050
O1953       O  0.57990771  0.54663979  0.51004438    -0.71010
O1954       O  0.58231574  0.95574098  0.97094643    -0.71030
O1955       O  0.58124707  0.98209639  0.53677058    -0.70970
O1956       O  0.58106267  0.52030110  0.94443589    -0.71160
V1957       V  0.63688258  0.50226261  0.99085317     1.35240
V1958       V  0.58146136  0.00120283  0.99057482     1.35170
C1959       C  0.60314006  0.54445915  0.93518170     0.78270
C1960       C  0.60392303  0.95839981  0.54605137     0.78330
C1961       C  0.60492285  0.94683613  0.94657392     0.78200
C1962       C  0.60186845  0.55667830  0.53438299     0.78160
O1963       O  0.95348715  0.62484529  0.94837209    -0.70960
O1964       O  0.54330978  0.62883116  0.51942050    -0.71180
O1965       O  0.53555830  0.62538260  0.94069313    -0.71040
O1966       O  0.96122905  0.62827232  0.52799721    -0.71050
O1967       O  0.95200874  0.57606336  0.50765230    -0.71010
O1968       O  0.54601508  0.57513622  0.96552390    -0.71030
O1969       O  0.52079278  0.57811717  0.53192745    -0.70970
O1970       O  0.97751582  0.57323693  0.94126443    -0.71160
V1971       V  0.99826795  0.62904624  0.98405776     1.35240
V1972       V  0.49905870  0.57619748  0.98656443     1.35170
C1973       C  0.95250890  0.59421860  0.93081517     0.78270
C1974       C  0.54562451  0.60017322  0.53993913     0.78330
C1975       C  0.55565209  0.59580319  0.94061879     0.78200
C1976       C  0.94220627  0.59826841  0.53114717     0.78160
O1977       O  0.53502562  0.54935895  0.61699564    -0.70960
O1978       O  0.96518765  0.96115565  0.62028425    -0.71180
O1979       O  0.54687311  0.97175959  0.62028022    -0.71040
O1980       O  0.95350154  0.53892097  0.61710265    -0.71050
O1981       O  0.97675693  0.54675038  0.56443133    -0.71010
O1982       O  0.52317505  0.95875743  0.56914929    -0.71030
O1983       O  0.95348251  0.98137962  0.56778202    -0.70970
O1984       O  0.54602510  0.52503860  0.56574192    -0.71160
V1985       V  0.50005008  0.50539142  0.62100750     1.35240
V1986       V  0.99998286  0.00293669  0.56726408     1.35170
C1987       C  0.55446697  0.55013842  0.58654027     0.78270
C1988       C  0.94497262  0.95808349  0.59046724     0.78330
C1989       C  0.54892471  0.95153691  0.59099379     0.78200
C1990       C  0.95140920  0.55611311  0.58590372     0.78160
O1991       O  0.92055111  0.54247303  0.96516623    -0.70960
O1992       O  0.92151449  0.95544806  0.51255093    -0.71180
O1993       O  0.92239141  0.97604196  0.94462251    -0.71040
O1994       O  0.91991360  0.52172234  0.53341051    -0.71050
O1995       O  0.86625709  0.54324584  0.52129533    -0.71010
O1996       O  0.86870452  0.95342581  0.95503198    -0.71030
O1997       O  0.86728081  0.96569801  0.53429870    -0.70970
O1998       O  0.86734629  0.53084145  0.94224366    -0.71160
V1999       V  0.92056532  0.49895976  0.98891755     1.35240
V2000       V  0.86499305  0.99823622  0.98821727     1.35170
C2001       C  0.89835571  0.54991343  0.93993469     0.78270
C2002       C  0.89892117  0.94751711  0.53733830     0.78330
C2003       C  0.90030763  0.95152928  0.93632323     0.78200
C2004       C  0.89696353  0.54581234  0.54109778     0.78160
O2005       O  0.52325723  0.54185692  0.91052689    -0.70960
O2006       O  0.98009397  0.95241647  0.91361549    -0.71180
O2007       O  0.54841703  0.97667374  0.91423607    -0.71040
O2008       O  0.95416427  0.51743295  0.90999217    -0.71050
O2009       O  0.96655030  0.53808307  0.85787689    -0.71010
O2010       O  0.54008768  0.95251394  0.86249135    -0.71030
O2011       O  0.95778009  0.95995801  0.86070150    -0.70970
O2012       O  0.54851442  0.52994070  0.85957248    -0.71160
V2013       V  0.50151531  0.49714698  0.91159714     1.35240
V2014       V  0.00317338  0.99498701  0.85783944     1.35170
C2015       C  0.54923634  0.54981035  0.88911178     0.78270
C2016       C  0.95552474  0.94247985  0.89174616     0.78330
C2017       C  0.55879420  0.95230597  0.89331593     0.78200
C2018       C  0.94558855  0.54077912  0.88734365     0.78160
O2019       O  0.52464164  0.92321704  0.94770733    -0.70960
O2020       O  0.97907390  0.92615767  0.53757026    -0.71180
O2021       O  0.54788123  0.92674465  0.51459115    -0.71040
O2022       O  0.95506004  0.92255473  0.97056366    -0.71050
O2023       O  0.96713909  0.87096589  0.95017563    -0.71010
O2024       O  0.53925821  0.87572497  0.53854240    -0.71030
O2025       O  0.95719245  0.87403179  0.52982345    -0.70970
O2026       O  0.54905105  0.87281289  0.95974740    -0.71160
V2027       V  0.50165057  0.92406723  0.99256743     1.35240
V2028       V  0.00310090  0.87118626  0.99468637     1.35170
C2029       C  0.55050774  0.90197397  0.93989317     0.78270
C2030       C  0.95452853  0.90456432  0.54756124     0.78330
C2031       C  0.55792887  0.90602251  0.53928592     0.78200
C2032       C  0.94675054  0.90018496  0.94671705     0.78160
C2033       C  0.60696155  0.64192598  0.58462957     0.24410
C2034       C  0.60329562  0.60403300  0.58919173    -0.23700
C2035       C  0.62284810  0.58777653  0.61881716     0.19320
C2036       C  0.64313275  0.60865356  0.64421404     0.24350
C2037       C  0.64689126  0.64649910  0.63942979    -0.23640
C2038       C  0.62770600  0.66270283  0.60971019     0.19250
F2039       F  0.62910428  0.69913629  0.60459280    -0.13600
F2040       F  0.59253038  0.65953687  0.55514566    -0.15960
F2041       F  0.65745963  0.59122095  0.67397003    -0.15960
F2042       F  0.62198050  0.55130772  0.62383949    -0.13600
C2043       C  0.85609638  0.59669844  0.59636682     0.24410
C2044       C  0.89518598  0.60239550  0.58884728    -0.23700
C2045       C  0.91341933  0.63143524  0.60678532     0.19320
C2046       C  0.89332899  0.65458446  0.63052238     0.24350
C2047       C  0.85440899  0.64860683  0.63860764    -0.23640
C2048       C  0.83598698  0.61987503  0.62009440     0.19250
F2049       F  0.79806643  0.61386968  0.62480614    -0.13600
F2050       F  0.83691008  0.56810234  0.58217772    -0.15960
F2051       F  0.91230505  0.68357114  0.64392845    -0.15960
F2052       F  0.95124159  0.63754526  0.60155643    -0.13600
C2053       C  0.66438404  0.87157949  0.61159853     0.24410
C2054       C  0.64479591  0.84847229  0.63588791    -0.23700
C2055       C  0.60472285  0.85267931  0.63891750     0.19320
C2056       C  0.58532209  0.87850997  0.61785080     0.24350
C2057       C  0.60504195  0.90226944  0.59425004    -0.23640
C2058       C  0.64522749  0.89859917  0.59196032     0.19250
F2059       F  0.66702322  0.92047554  0.57085235    -0.13600
F2060       F  0.70287212  0.86891062  0.60770679    -0.15960
F2061       F  0.54670529  0.88032519  0.62083860    -0.15960
F2062       F  0.58339355  0.83250085  0.66222184    -0.13600
C2063       C  0.60511157  0.64758538  0.84088920     0.24410
C2064       C  0.64549317  0.64973027  0.84221273    -0.23700
C2065       C  0.66478406  0.62581542  0.86583992     0.19320
C2066       C  0.64500815  0.59978484  0.88614874     0.24350
C2067       C  0.60458059  0.59873450  0.88599695    -0.23640
C2068       C  0.58524372  0.62311543  0.86298252     0.19250
F2069       F  0.54650117  0.62302901  0.86134834    -0.13600
F2070       F  0.58364788  0.66875856  0.81877691    -0.15960
F2071       F  0.66650284  0.57571646  0.90498196    -0.15960
F2072       F  0.70346132  0.62661792  0.86835839    -0.13600
C2073       C  0.85362608  0.84919903  0.59677501     0.24410
C2074       C  0.85288645  0.85006334  0.63595679    -0.23700
C2075       C  0.87489465  0.87685014  0.65349294     0.19320
C2076       C  0.89529531  0.90263792  0.63309250     0.24350
C2077       C  0.89673892  0.90110519  0.59399517    -0.23640
C2078       C  0.87540731  0.87393756  0.57648033     0.19250
F2079       F  0.87538764  0.87126148  0.53906285    -0.13600
F2080       F  0.83435497  0.82429197  0.57696160    -0.15960
F2081       F  0.91279212  0.92904715  0.65254303    -0.15960
F2082       F  0.87593182  0.87888622  0.69092910    -0.13600
C2083       C  0.66481253  0.87299211  0.86584950     0.24410
C2084       C  0.64475920  0.85193396  0.83979574    -0.23700
C2085       C  0.60461712  0.85460877  0.83929917     0.19320
C2086       C  0.58540268  0.87685516  0.86441771     0.24350
C2087       C  0.60540857  0.89739375  0.89081434    -0.23640
C2088       C  0.64550215  0.89440661  0.89169417     0.19250
F2089       F  0.66668273  0.91135519  0.91765806    -0.13600
F2090       F  0.70356147  0.87236603  0.86700102    -0.15960
F2091       F  0.54669730  0.87824917  0.86277201    -0.15960
F2092       F  0.58324980  0.83706818  0.81397064    -0.13600
C2093       C  0.84789802  0.64591808  0.88202775     0.24410
C2094       C  0.85390290  0.65128042  0.84370820    -0.23700
C2095       C  0.88166850  0.62963756  0.82624953     0.19320
C2096       C  0.90250674  0.60358996  0.84586646     0.24350
C2097       C  0.89653389  0.59814018  0.88418230    -0.23640
C2098       C  0.86942879  0.62051462  0.90183445     0.19250
F2099       F  0.86346665  0.61790508  0.93880279    -0.13600
F2100       F  0.82072463  0.66417873  0.90108320    -0.15960
F2101       F  0.92914567  0.58496766  0.82662154    -0.15960
F2102       F  0.88834256  0.63316206  0.78947073    -0.13600
C2103       C  0.90896291  0.86102774  0.87861694     0.24410
C2104       C  0.89802644  0.89654272  0.88861988    -0.23700
C2105       C  0.86386324  0.91027295  0.87326426     0.19320
C2106       C  0.84077681  0.88881278  0.85053655     0.24350
C2107       C  0.85138473  0.85297089  0.84122158    -0.23640
C2108       C  0.88521114  0.83914689  0.85693126     0.19250
F2109       F  0.89564208  0.80411426  0.85160799    -0.13600
F2110       F  0.94319795  0.84725159  0.88875848    -0.15960
F2111       F  0.80717316  0.90324713  0.83925050    -0.15960
F2112       F  0.85268116  0.94503258  0.87922536    -0.13600
loop_ 
_geom_bond_atom_site_label_1 
_geom_bond_atom_site_label_2 
_geom_bond_distance 
_geom_bond_site_symmetry_2 
_ccdc_geom_bond_type 
O1            V9   1.806       .  S
O1           C11   1.228       .  A
O2            V9   1.812       .  S
O2           C12   1.227       .  A
O3            V9   1.817       .  S
O3           C13   1.230       .  A
O4            V9   1.821       .  S
O4           C14   1.230       .  A
O5           V10   2.050       .  S
O5           C14   1.298       .  A
O6           V10   2.056       .  S
O6           C13   1.299       .  A
O7           V10   2.042       .  S
O7           C12   1.297       .  A
O8           V10   2.042       .  S
O8           C11   1.296       .  A
V9           V10   1.949       .  T
C11          C89   1.614       .  S
C12          C87   1.620       .  S
C13          C93   1.622       .  S
C14          C85   1.617       .  S
O15          V23   1.818       .  S
O15          C25   1.230       .  A
O16          V23   1.818       .  S
O16          C26   1.230       .  A
O17          V23   1.825       .  S
O17          C27   1.231       .  A
O18          V23   1.825       .  S
O18          C28   1.232       .  A
O19          V24   2.056       .  S
O19          C28   1.299       .  A
O20          V24   2.060       .  S
O20          C27   1.300       .  A
O21          V24   2.043       .  S
O21          C26   1.297       .  A
O22          V24   2.044       .  S
O22          C25   1.298       .  A
V23          V24   1.948       .  T
C25          C85   1.624       .  S
C26          C97   1.627       .  S
C27          C87   1.631       .  S
C28          C91   1.624       .  S
O29          V37   2.049       .  S
O29          C39   1.298       .  A
O30          V37   2.048       .  S
O30          C40   1.297       .  A
O31          V37   2.044       .  S
O31          C41   1.297       .  A
O32          V37   2.048       .  S
O32          C42   1.298       .  A
O33          V38   1.816       .  S
O33          C42   1.228       .  A
O34          V38   1.810       .  S
O34          C41   1.228       .  A
O35          V38   1.816       .  S
O35          C40   1.231       .  A
O36          V38   1.811       .  S
O36          C39   1.228       .  A
V37          V38   1.952       .  T
C39          C89   1.612       .  S
C40          C91   1.621       .  S
C41          C95   1.614       .  S
C42          C85   1.622       .  S
O43          V51   1.819       .  S
O43          C53   1.229       .  A
O44          V51   1.817       .  S
O44          C54   1.230       .  A
O45          V51   1.814       .  S
O45          C55   1.228       .  A
O46          V51   1.810       .  S
O46          C56   1.226       .  A
O47          V52   2.031       .  S
O47          C56   1.296       .  A
O48          V52   2.035       .  S
O48          C55   1.296       .  A
O49          V52   2.049       .  S
O49          C54   1.297       .  A
O50          V52   2.046       .  S
O50          C53   1.299       .  A
V51          V52   1.942       .  T
C53          C89   1.627       .  S
C54          C99   1.617       .  S
C55          C95   1.616       .  S
C56          C93   1.615       .  S
O57          V65   1.811       .  S
O57          C67   1.229       .  A
O58          V65   1.810       .  S
O58          C68   1.228       .  A
O59          V65   1.813       .  S
O59          C69   1.229       .  A
O60          V65   1.812       .  S
O60          C70   1.227       .  A
O61          V66   2.038       .  S
O61          C70   1.297       .  A
O62          V66   2.043       .  S
O62          C69   1.296       .  A
O63          V66   2.049       .  S
O63          C68   1.297       .  A
O64          V66   2.047       .  S
O64          C67   1.297       .  A
V65          V66   1.951       .  T
C67          C97   1.619       .  S
C68          C93   1.620       .  S
C69          C87   1.614       .  S
C70          C99   1.614       .  S
O71          V79   2.057       .  S
O71          C81   1.299       .  A
O72          V79   2.046       .  S
O72          C82   1.297       .  A
O73          V79   2.043       .  S
O73          C83   1.297       .  A
O74          V79   2.035       .  S
O74          C84   1.296       .  A
O75          V80   1.814       .  S
O75          C84   1.227       .  A
O76          V80   1.812       .  S
O76          C83   1.228       .  A
O77          V80   1.818       .  S
O77          C82   1.230       .  A
O78          V80   1.819       .  S
O78          C81   1.230       .  A
V79          V80   1.949       .  T
C81          C95   1.624       .  S
C82          C97   1.612       .  S
C83          C99   1.616       .  S
C84          C91   1.620       .  S
C85         C259   1.536       .  S
C86         C155   1.621       .  S
C86         C168   1.616       .  S
C86         C184   1.631       .  S
C86         C256   1.538       .  S
C87         C246   1.535       .  S
C88         C125   1.609       .  S
C88         C153   1.633       .  S
C88         C170   1.624       .  S
C88         C249   1.538       .  S
C89         C236   1.524       .  S
C90         C113   1.621       .  S
C90         C169   1.609       .  S
C90         C181   1.616       .  S
C90         C239   1.521       .  S
C91         C226   1.540       .  S
C92         C140   1.620       .  S
C92         C154   1.630       .  S
C92         C182   1.619       .  S
C92         C229   1.535       .  S
C93         C216   1.526       .  S
C94         C111   1.610       .  S
C94         C127   1.615       .  S
C94         C167   1.621       .  S
C94         C219   1.524       .  S
C95         C206   1.528       .  S
C96         C112   1.616       .  S
C96         C141   1.627       .  S
C96         C183   1.612       .  S
C96         C209   1.530       .  S
C97         C199   1.531       .  S
C98         C128   1.622       .  S
C98         C142   1.616       .  S
C98         C156   1.623       .  S
C98         C196   1.527       .  S
C99         C189   1.523       .  S
C100        C114   1.613       .  S
C100        C126   1.623       .  S
C100        C139   1.616       .  S
C100        C186   1.528       .  S
O101        V109   2.027       .  S
O101        C111   1.295       .  A
O102        V901   2.034   1_554  S
O102        C112   1.296       .  A
O103        V637   2.047       .  S
O103        C113   1.298       .  A
O104        V373   2.050   1_554  S
O104        C114   1.298       .  A
O105        V902   1.818   1_554  S
O105        C114   1.229       .  A
O106        V110   1.821       .  S
O106        C113   1.228       .  A
O107        V374   1.816   1_554  S
O107        C112   1.228       .  A
O108        V638   1.815       .  S
O108        C111   1.228       .  A
V109        O894   2.034   1_545  S
V109        O631   2.047   1_545  S
V109        O368   2.050       .  S
V109        V638   1.942       .  T
V110        O897   1.818       .  S
V110        O371   1.816       .  S
V110        O636   1.815       .  S
V110        V637   1.942       .  T
O115        V123   2.042       .  S
O115        C125   1.296       .  A
O116       V1443   2.035   1_454  S
O116        C126   1.296       .  A
O117       V1179   2.044   1_455  S
O117        C127   1.297       .  A
O118        V387   2.051   1_554  S
O118        C128   1.299       .  A
O119       V1444   1.815   1_554  S
O119        C128   1.228       .  A
O120        V124   1.811   1_455  S
O120        C127   1.229       .  A
O121        V388   1.814   1_454  S
O121        C126   1.228       .  A
O122       V1180   1.811       .  S
O122        C125   1.229       .  A
V123       O1436   2.035       .  S
V123       O1173   2.044       .  S
V123        O382   2.051       .  S
V123       V1180   1.952       .  T
V124       O1439   1.815       .  S
V124        O385   1.814   1_655  S
V124       O1178   1.811       .  S
V124       V1179   1.952       .  T
O129        V137   2.041       .  S
O129        C139   1.295       .  A
O130       V1721   2.041       .  S
O130        C140   1.298       .  A
O131        V665   2.055       .  S
O131        C141   1.298       .  A
O132       V1193   2.050       .  S
O132        C142   1.299       .  A
O133        V666   1.811       .  S
O133        C142   1.227       .  A
O134       V1194   1.821   1_455  S
O134        C141   1.231       .  A
O135        V138   1.815       .  S
O135        C140   1.227       .  A
O136       V1722   1.810   1_455  S
O136        C139   1.230       .  A
V137       O1714   2.041   1_445  S
V137        O659   2.055   1_545  S
V137       O1188   2.050   1_455  S
V137       V1722   1.948   1_455  T
V138        O661   1.811       .  S
V138       O1190   1.821       .  S
V138       O1720   1.810       .  S
V138       V1721   1.948       .  T
O143        V151   1.822   1_545  S
O143        C153   1.232       .  A
O144        V943   1.821   1_554  S
O144        C154   1.231       .  A
O145        V679   1.813       .  S
O145        C155   1.229       .  A
O146        V415   1.816   1_544  S
O146        C156   1.228       .  A
O147        V944   2.047   1_544  S
O147        C156   1.298       .  A
O148        V152   2.046       .  S
O148        C155   1.298       .  A
O149        V416   2.059   1_554  S
O149        C154   1.299       .  A
O150        V680   2.057   1_545  S
O150        C153   1.298       .  A
V151        O936   1.821       .  S
V151        O673   1.813       .  S
V151        O410   1.816   1_565  S
V151        V680   1.948       .  T
V152        O939   2.047       .  S
V152        O413   2.059       .  S
V152        O678   2.057       .  S
V152        V679   1.948       .  T
O157        V165   1.819   1_545  S
O157        C167   1.231       .  A
O158       V1749   1.816       .  S
O158        C168   1.228       .  A
O159        V693   1.810       .  S
O159        C169   1.229       .  A
O160       V1221   1.820   1_545  S
O160        C170   1.228       .  A
O161        V694   2.041   1_545  S
O161        C170   1.297       .  A
O162       V1222   2.037       .  S
O162        C169   1.296       .  A
O163        V166   2.054       .  S
O163        C168   1.299       .  A
O164       V1750   2.050   1_545  S
O164        C167   1.296       .  A
V165       O1742   1.816   1_455  S
V165        O687   1.810       .  S
V165       O1216   1.820   1_465  S
V165       V1750   1.949       .  T
V166        O689   2.041       .  S
V166       O1218   2.037       .  S
V166       O1748   2.050       .  S
V166       V1749   1.949       .  T
O171        V179   1.812       .  S
O171        C181   1.229       .  A
O172       V1499   1.811   1_554  S
O172        C182   1.228       .  A
O173        V443   1.811   1_554  S
O173        C183   1.229       .  A
O174       V1235   1.820       .  S
O174        C184   1.230       .  A
O175        V180   2.049       .  S
O175        C184   1.298       .  A
O176       V1500   2.042   1_554  S
O176        C183   1.297       .  A
O177        V444   2.051   1_554  S
O177        C182   1.299       .  A
O178       V1236   2.046       .  S
O178        C181   1.296       .  A
V179       O1492   1.811   1_455  S
V179        O437   1.811       .  S
V179       O1230   1.820   1_455  S
V179       V1236   1.953       .  T
V180       O1496   2.042       .  S
V180        O441   2.051       .  S
V180       O1234   2.046       .  S
V180       V1235   1.953       .  T
C185        C186   1.414       .  A
C185        C190   1.395       .  A
C185        F192   1.350       .  S
C186        C187   1.409       .  A
C187        C188   1.396       .  A
C187        F194   1.358       .  S
C188        C189   1.414       .  A
C188        F193   1.353       .  S
C189        C190   1.404       .  A
C190        F191   1.358       .  S
C195        C196   1.412       .  A
C195        C200   1.399       .  A
C195        F202   1.354       .  S
C196        C197   1.408       .  A
C197        C198   1.398       .  A
C197        F204   1.358       .  S
C198        C199   1.412       .  A
C198        F203   1.351       .  S
C199        C200   1.412       .  A
C200        F201   1.358       .  S
C205        C206   1.405       .  A
C205        C210   1.397       .  A
C205        F212   1.359       .  S
C206        C207   1.416       .  A
C207        C208   1.398       .  A
C207        F214   1.351       .  S
C208        C209   1.406       .  A
C208        F213   1.359       .  S
C209        C210   1.416       .  A
C210        F211   1.349       .  S
C215        C216   1.418       .  A
C215        C220   1.394       .  A
C215        F222   1.349       .  S
C216        C217   1.404       .  A
C217        C218   1.395       .  A
C217        F224   1.359       .  S
C218        C219   1.417       .  A
C218        F223   1.350       .  S
C219        C220   1.402       .  A
C220        F221   1.359       .  S
C225        C226   1.420       .  A
C225        C230   1.399       .  A
C225        F232   1.349       .  S
C226        C227   1.407       .  A
C227        C228   1.402       .  A
C227        F234   1.358       .  S
C228        C229   1.418       .  A
C228        F233   1.351       .  S
C229        C230   1.404       .  A
C230        F231   1.359       .  S
C235        C236   1.411       .  A
C235        C240   1.396       .  A
C235        F242   1.359       .  S
C236        C237   1.410       .  A
C237        C238   1.395       .  A
C237        F244   1.351       .  S
C238        C239   1.409       .  A
C238        F243   1.359       .  S
C239        C240   1.409       .  A
C240        F241   1.353       .  S
C245        C246   1.417       .  A
C245        C250   1.401       .  A
C245        F252   1.352       .  S
C246        C247   1.405       .  A
C247        C248   1.401       .  A
C247        F254   1.358       .  S
C248        C249   1.418       .  A
C248        F253   1.349       .  S
C249        C250   1.408       .  A
C250        F251   1.358       .  S
C255        C256   1.411       .  A
C255        C260   1.402       .  A
C255        F262   1.354       .  S
C256        C257   1.414       .  A
C257        C258   1.401       .  A
C257        F264   1.357       .  S
C258        C259   1.413       .  A
C258        F263   1.355       .  S
C259        C260   1.411       .  A
C260        F261   1.356       .  S
O265        V273   1.806       .  S
O265        C275   1.228       .  A
O266        V273   1.812       .  S
O266        C276   1.227       .  A
O267        V273   1.817       .  S
O267        C277   1.230       .  A
O268        V273   1.821       .  S
O268        C278   1.230       .  A
O269        V274   2.050       .  S
O269        C278   1.298       .  A
O270        V274   2.056       .  S
O270        C277   1.299       .  A
O271        V274   2.042       .  S
O271        C276   1.297       .  A
O272        V274   2.042       .  S
O272        C275   1.296       .  A
V273        V274   1.949       .  T
C275        C353   1.614       .  S
C276        C351   1.620       .  S
C277        C357   1.622       .  S
C278        C349   1.617       .  S
O279        V287   1.818       .  S
O279        C289   1.230       .  A
O280        V287   1.818       .  S
O280        C290   1.230       .  A
O281        V287   1.825       .  S
O281        C291   1.231       .  A
O282        V287   1.825       .  S
O282        C292   1.232       .  A
O283        V288   2.056       .  S
O283        C292   1.299       .  A
O284        V288   2.060       .  S
O284        C291   1.300       .  A
O285        V288   2.043       .  S
O285        C290   1.297       .  A
O286        V288   2.044       .  S
O286        C289   1.298       .  A
V287        V288   1.948       .  T
C289        C349   1.624       .  S
C290        C361   1.627       .  S
C291        C351   1.631       .  S
C292        C355   1.624       .  S
O293        V301   2.049       .  S
O293        C303   1.298       .  A
O294        V301   2.048       .  S
O294        C304   1.297       .  A
O295        V301   2.044       .  S
O295        C305   1.297       .  A
O296        V301   2.048       .  S
O296        C306   1.298       .  A
O297        V302   1.816       .  S
O297        C306   1.228       .  A
O298        V302   1.810       .  S
O298        C305   1.228       .  A
O299        V302   1.816       .  S
O299        C304   1.231       .  A
O300        V302   1.811       .  S
O300        C303   1.228       .  A
V301        V302   1.952       .  T
C303        C353   1.612       .  S
C304        C355   1.621       .  S
C305        C359   1.614       .  S
C306        C349   1.622       .  S
O307        V315   1.819       .  S
O307        C317   1.229       .  A
O308        V315   1.817       .  S
O308        C318   1.230       .  A
O309        V315   1.814       .  S
O309        C319   1.228       .  A
O310        V315   1.810       .  S
O310        C320   1.226       .  A
O311        V316   2.031       .  S
O311        C320   1.296       .  A
O312        V316   2.035       .  S
O312        C319   1.296       .  A
O313        V316   2.049       .  S
O313        C318   1.297       .  A
O314        V316   2.046       .  S
O314        C317   1.299       .  A
V315        V316   1.942       .  T
C317        C353   1.627       .  S
C318        C363   1.617       .  S
C319        C359   1.616       .  S
C320        C357   1.615       .  S
O321        V329   1.811       .  S
O321        C331   1.229       .  A
O322        V329   1.810       .  S
O322        C332   1.228       .  A
O323        V329   1.813       .  S
O323        C333   1.229       .  A
O324        V329   1.812       .  S
O324        C334   1.227       .  A
O325        V330   2.038       .  S
O325        C334   1.297       .  A
O326        V330   2.043       .  S
O326        C333   1.296       .  A
O327        V330   2.049       .  S
O327        C332   1.297       .  A
O328        V330   2.047       .  S
O328        C331   1.297       .  A
V329        V330   1.951       .  T
C331        C361   1.619       .  S
C332        C357   1.620       .  S
C333        C351   1.614       .  S
C334        C363   1.614       .  S
O335        V343   2.057       .  S
O335        C345   1.299       .  A
O336        V343   2.046       .  S
O336        C346   1.297       .  A
O337        V343   2.043       .  S
O337        C347   1.297       .  A
O338        V343   2.035       .  S
O338        C348   1.296       .  A
O339        V344   1.814       .  S
O339        C348   1.227       .  A
O340        V344   1.812       .  S
O340        C347   1.228       .  A
O341        V344   1.818       .  S
O341        C346   1.230       .  A
O342        V344   1.819       .  S
O342        C345   1.230       .  A
V343        V344   1.949       .  T
C345        C359   1.624       .  S
C346        C361   1.612       .  S
C347        C363   1.616       .  S
C348        C355   1.620       .  S
C349        C523   1.536       .  S
C350        C419   1.621       .  S
C350        C432   1.616       .  S
C350        C448   1.631       .  S
C350        C520   1.538       .  S
C351        C510   1.535       .  S
C352        C389   1.609       .  S
C352        C417   1.633       .  S
C352        C434   1.624       .  S
C352        C513   1.538       .  S
C353        C500   1.524       .  S
C354        C377   1.621       .  S
C354        C433   1.609       .  S
C354        C445   1.616       .  S
C354        C503   1.521       .  S
C355        C490   1.540       .  S
C356        C404   1.620       .  S
C356        C418   1.630       .  S
C356        C446   1.619       .  S
C356        C493   1.535       .  S
C357        C480   1.526       .  S
C358        C375   1.610       .  S
C358        C391   1.615       .  S
C358        C431   1.621       .  S
C358        C483   1.524       .  S
C359        C470   1.528       .  S
C360        C376   1.616       .  S
C360        C405   1.627       .  S
C360        C447   1.612       .  S
C360        C473   1.530       .  S
C361        C463   1.531       .  S
C362        C392   1.622       .  S
C362        C406   1.616       .  S
C362        C420   1.623       .  S
C362        C460   1.527       .  S
C363        C453   1.523       .  S
C364        C378   1.613       .  S
C364        C390   1.623       .  S
C364        C403   1.616       .  S
C364        C450   1.528       .  S
O365        V373   2.027       .  S
O365        C375   1.295       .  A
O366        V637   2.034       .  S
O366        C376   1.296       .  A
O367        V901   2.047       .  S
O367        C377   1.298       .  A
O368        C378   1.298       .  A
O369        V638   1.818       .  S
O369        C378   1.229       .  A
O370        V374   1.821       .  S
O370        C377   1.228       .  A
O371        C376   1.228       .  A
O372        V902   1.815       .  S
O372        C375   1.228       .  A
V373        O630   2.034   1_546  S
V373        O895   2.047   1_545  S
V373        V902   1.942       .  T
V374        O633   1.818   1_556  S
V374        O900   1.815       .  S
V374        V901   1.942       .  T
O379        V387   2.042       .  S
O379        C389   1.296       .  A
O380       V1179   2.035   1_455  S
O380        C390   1.296       .  A
O381       V1443   2.044   1_455  S
O381        C391   1.297       .  A
O382        C392   1.299       .  A
O383       V1180   1.815       .  S
O383        C392   1.228       .  A
O384        V388   1.811   1_455  S
O384        C391   1.229       .  A
O385        C390   1.228       .  A
O386       V1444   1.811       .  S
O386        C389   1.229       .  A
V387       O1172   2.035   1_556  S
V387       O1437   2.044       .  S
V387       V1444   1.952       .  T
V388       O1175   1.815   1_556  S
V388       O1442   1.811       .  S
V388       V1443   1.952       .  T
O393        V401   2.041       .  S
O393        C403   1.295       .  A
O394       V1985   2.041       .  S
O394        C404   1.298       .  A
O395        V929   2.055       .  S
O395        C405   1.298       .  A
O396       V1457   2.050       .  S
O396        C406   1.299       .  A
O397        V930   1.811       .  S
O397        C406   1.227       .  A
O398       V1458   1.821   1_455  S
O398        C405   1.231       .  A
O399        V402   1.815       .  S
O399        C404   1.227       .  A
O400       V1986   1.810   1_455  S
O400        C403   1.230       .  A
V401       O1978   2.041   1_445  S
V401        O923   2.055   1_545  S
V401       O1452   2.050   1_455  S
V401       V1986   1.948   1_455  T
V402        O925   1.811       .  S
V402       O1454   1.821       .  S
V402       O1984   1.810       .  S
V402       V1985   1.948       .  T
O407        V415   1.822   1_545  S
O407        C417   1.232       .  A
O408        V679   1.821       .  S
O408        C418   1.231       .  A
O409        V943   1.813       .  S
O409        C419   1.229       .  A
O410        C420   1.228       .  A
O411        V680   2.047   1_545  S
O411        C420   1.298       .  A
O412        V416   2.046       .  S
O412        C419   1.298       .  A
O413        C418   1.299       .  A
O414        V944   2.057   1_545  S
O414        C417   1.298       .  A
V415        O672   1.821   1_556  S
V415        O937   1.813       .  S
V415        V944   1.948       .  T
V416        O675   2.047   1_556  S
V416        O942   2.057       .  S
V416        V943   1.948       .  T
O421        V429   1.819   1_545  S
O421        C431   1.231       .  A
O422       V2013   1.816       .  S
O422        C432   1.228       .  A
O423        V957   1.810       .  S
O423        C433   1.229       .  A
O424       V1485   1.820   1_545  S
O424        C434   1.228       .  A
O425        V958   2.041   1_545  S
O425        C434   1.297       .  A
O426       V1486   2.037       .  S
O426        C433   1.296       .  A
O427        V430   2.054       .  S
O427        C432   1.299       .  A
O428       V2014   2.050   1_545  S
O428        C431   1.296       .  A
V429       O2006   1.816   1_455  S
V429        O951   1.810       .  S
V429       O1480   1.820   1_465  S
V429       V2014   1.949       .  T
V430        O953   2.041       .  S
V430       O1482   2.037       .  S
V430       O2012   2.050       .  S
V430       V2013   1.949       .  T
O435        V443   1.812       .  S
O435        C445   1.229       .  A
O436       V1235   1.811       .  S
O436        C446   1.228       .  A
O437        C447   1.229       .  A
O438       V1499   1.820       .  S
O438        C448   1.230       .  A
O439        V444   2.049       .  S
O439        C448   1.298       .  A
O440       V1236   2.042       .  S
O440        C447   1.297       .  A
O441        C446   1.299       .  A
O442       V1500   2.046       .  S
O442        C445   1.296       .  A
V443       O1228   1.811   1_456  S
V443       O1494   1.820   1_455  S
V443       V1500   1.953       .  T
V444       O1232   2.042   1_556  S
V444       O1498   2.046       .  S
V444       V1499   1.953       .  T
C449        C450   1.414       .  A
C449        C454   1.395       .  A
C449        F456   1.350       .  S
C450        C451   1.409       .  A
C451        C452   1.396       .  A
C451        F458   1.358       .  S
C452        C453   1.414       .  A
C452        F457   1.353       .  S
C453        C454   1.404       .  A
C454        F455   1.358       .  S
C459        C460   1.412       .  A
C459        C464   1.399       .  A
C459        F466   1.354       .  S
C460        C461   1.408       .  A
C461        C462   1.398       .  A
C461        F468   1.358       .  S
C462        C463   1.412       .  A
C462        F467   1.351       .  S
C463        C464   1.412       .  A
C464        F465   1.358       .  S
C469        C470   1.405       .  A
C469        C474   1.397       .  A
C469        F476   1.359       .  S
C470        C471   1.416       .  A
C471        C472   1.398       .  A
C471        F478   1.351       .  S
C472        C473   1.406       .  A
C472        F477   1.359       .  S
C473        C474   1.416       .  A
C474        F475   1.349       .  S
C479        C480   1.418       .  A
C479        C484   1.394       .  A
C479        F486   1.349       .  S
C480        C481   1.404       .  A
C481        C482   1.395       .  A
C481        F488   1.359       .  S
C482        C483   1.417       .  A
C482        F487   1.350       .  S
C483        C484   1.402       .  A
C484        F485   1.359       .  S
C489        C490   1.420       .  A
C489        C494   1.399       .  A
C489        F496   1.349       .  S
C490        C491   1.407       .  A
C491        C492   1.402       .  A
C491        F498   1.358       .  S
C492        C493   1.418       .  A
C492        F497   1.351       .  S
C493        C494   1.404       .  A
C494        F495   1.359       .  S
C499        C500   1.411       .  A
C499        C504   1.396       .  A
C499        F506   1.359       .  S
C500        C501   1.410       .  A
C501        C502   1.395       .  A
C501        F508   1.351       .  S
C502        C503   1.409       .  A
C502        F507   1.359       .  S
C503        C504   1.409       .  A
C504        F505   1.353       .  S
C509        C510   1.417       .  A
C509        C514   1.401       .  A
C509        F516   1.352       .  S
C510        C511   1.405       .  A
C511        C512   1.401       .  A
C511        F518   1.358       .  S
C512        C513   1.418       .  A
C512        F517   1.349       .  S
C513        C514   1.408       .  A
C514        F515   1.358       .  S
C519        C520   1.411       .  A
C519        C524   1.402       .  A
C519        F526   1.354       .  S
C520        C521   1.414       .  A
C521        C522   1.401       .  A
C521        F528   1.357       .  S
C522        C523   1.413       .  A
C522        F527   1.355       .  S
C523        C524   1.411       .  A
C524        F525   1.356       .  S
O529        V537   1.806       .  S
O529        C539   1.228       .  A
O530        V537   1.812       .  S
O530        C540   1.227       .  A
O531        V537   1.817       .  S
O531        C541   1.230       .  A
O532        V537   1.821       .  S
O532        C542   1.230       .  A
O533        V538   2.050       .  S
O533        C542   1.298       .  A
O534        V538   2.056       .  S
O534        C541   1.299       .  A
O535        V538   2.042       .  S
O535        C540   1.297       .  A
O536        V538   2.042       .  S
O536        C539   1.296       .  A
V537        V538   1.949       .  T
C539        C617   1.614       .  S
C540        C615   1.620       .  S
C541        C621   1.622       .  S
C542        C613   1.617       .  S
O543        V551   1.818       .  S
O543        C553   1.230       .  A
O544        V551   1.818       .  S
O544        C554   1.230       .  A
O545        V551   1.825       .  S
O545        C555   1.231       .  A
O546        V551   1.825       .  S
O546        C556   1.232       .  A
O547        V552   2.056       .  S
O547        C556   1.299       .  A
O548        V552   2.060       .  S
O548        C555   1.300       .  A
O549        V552   2.043       .  S
O549        C554   1.297       .  A
O550        V552   2.044       .  S
O550        C553   1.298       .  A
V551        V552   1.948       .  T
C553        C613   1.624       .  S
C554        C625   1.627       .  S
C555        C615   1.631       .  S
C556        C619   1.624       .  S
O557        V565   2.049       .  S
O557        C567   1.298       .  A
O558        V565   2.048       .  S
O558        C568   1.297       .  A
O559        V565   2.044       .  S
O559        C569   1.297       .  A
O560        V565   2.048       .  S
O560        C570   1.298       .  A
O561        V566   1.816       .  S
O561        C570   1.228       .  A
O562        V566   1.810       .  S
O562        C569   1.228       .  A
O563        V566   1.816       .  S
O563        C568   1.231       .  A
O564        V566   1.811       .  S
O564        C567   1.228       .  A
V565        V566   1.952       .  T
C567        C617   1.612       .  S
C568        C619   1.621       .  S
C569        C623   1.614       .  S
C570        C613   1.622       .  S
O571        V579   1.819       .  S
O571        C581   1.229       .  A
O572        V579   1.817       .  S
O572        C582   1.230       .  A
O573        V579   1.814       .  S
O573        C583   1.228       .  A
O574        V579   1.810       .  S
O574        C584   1.226       .  A
O575        V580   2.031       .  S
O575        C584   1.296       .  A
O576        V580   2.035       .  S
O576        C583   1.296       .  A
O577        V580   2.049       .  S
O577        C582   1.297       .  A
O578        V580   2.046       .  S
O578        C581   1.299       .  A
V579        V580   1.942       .  T
C581        C617   1.627       .  S
C582        C627   1.617       .  S
C583        C623   1.616       .  S
C584        C621   1.615       .  S
O585        V593   1.811       .  S
O585        C595   1.229       .  A
O586        V593   1.810       .  S
O586        C596   1.228       .  A
O587        V593   1.813       .  S
O587        C597   1.229       .  A
O588        V593   1.812       .  S
O588        C598   1.227       .  A
O589        V594   2.038       .  S
O589        C598   1.297       .  A
O590        V594   2.043       .  S
O590        C597   1.296       .  A
O591        V594   2.049       .  S
O591        C596   1.297       .  A
O592        V594   2.047       .  S
O592        C595   1.297       .  A
V593        V594   1.951       .  T
C595        C625   1.619       .  S
C596        C621   1.620       .  S
C597        C615   1.614       .  S
C598        C627   1.614       .  S
O599        V607   2.057       .  S
O599        C609   1.299       .  A
O600        V607   2.046       .  S
O600        C610   1.297       .  A
O601        V607   2.043       .  S
O601        C611   1.297       .  A
O602        V607   2.035       .  S
O602        C612   1.296       .  A
O603        V608   1.814       .  S
O603        C612   1.227       .  A
O604        V608   1.812       .  S
O604        C611   1.228       .  A
O605        V608   1.818       .  S
O605        C610   1.230       .  A
O606        V608   1.819       .  S
O606        C609   1.230       .  A
V607        V608   1.949       .  T
C609        C623   1.624       .  S
C610        C625   1.612       .  S
C611        C627   1.616       .  S
C612        C619   1.620       .  S
C613        C787   1.536       .  S
C614        C683   1.621       .  S
C614        C696   1.616       .  S
C614        C712   1.631       .  S
C614        C784   1.538       .  S
C615        C774   1.535       .  S
C616        C653   1.609       .  S
C616        C681   1.633       .  S
C616        C698   1.624       .  S
C616        C777   1.538       .  S
C617        C764   1.524       .  S
C618        C641   1.621       .  S
C618        C697   1.609       .  S
C618        C709   1.616       .  S
C618        C767   1.521       .  S
C619        C754   1.540       .  S
C620        C668   1.620       .  S
C620        C682   1.630       .  S
C620        C710   1.619       .  S
C620        C757   1.535       .  S
C621        C744   1.526       .  S
C622        C639   1.610       .  S
C622        C655   1.615       .  S
C622        C695   1.621       .  S
C622        C747   1.524       .  S
C623        C734   1.528       .  S
C624        C640   1.616       .  S
C624        C669   1.627       .  S
C624        C711   1.612       .  S
C624        C737   1.530       .  S
C625        C727   1.531       .  S
C626        C656   1.622       .  S
C626        C670   1.616       .  S
C626        C684   1.623       .  S
C626        C724   1.527       .  S
C627        C717   1.523       .  S
C628        C642   1.613       .  S
C628        C654   1.623       .  S
C628        C667   1.616       .  S
C628        C714   1.528       .  S
O629        V637   2.027       .  S
O629        C639   1.295       .  A
O630        C640   1.296       .  A
O631        C641   1.298       .  A
O632        V901   2.050   1_554  S
O632        C642   1.298       .  A
O633        C642   1.229       .  A
O634        V638   1.821   1_565  S
O634        C641   1.228       .  A
O635        V902   1.816   1_564  S
O635        C640   1.228       .  A
O636        C639   1.228       .  A
V637        O896   2.050       .  S
V638        O899   1.816   1_545  S
O643        V651   2.042       .  S
O643        C653   1.296       .  A
O644       V1971   2.035   1_454  S
O644        C654   1.296       .  A
O645       V1707   2.044   1_455  S
O645        C655   1.297       .  A
O646        V915   2.051   1_554  S
O646        C656   1.299       .  A
O647       V1972   1.815   1_554  S
O647        C656   1.228       .  A
O648        V652   1.811   1_455  S
O648        C655   1.229       .  A
O649        V916   1.814   1_454  S
O649        C654   1.228       .  A
O650       V1708   1.811       .  S
O650        C653   1.229       .  A
V651       O1964   2.035       .  S
V651       O1701   2.044       .  S
V651        O910   2.051       .  S
V651       V1708   1.952       .  T
V652       O1967   1.815       .  S
V652        O913   1.814   1_655  S
V652       O1706   1.811       .  S
V652       V1707   1.952       .  T
O657        V665   2.041       .  S
O657        C667   1.295       .  A
O658       V1193   2.041   1_565  S
O658        C668   1.298       .  A
O659        C669   1.298       .  A
O660       V1721   2.050       .  S
O660        C670   1.299       .  A
O661        C670   1.227       .  A
O662       V1722   1.821   1_465  S
O662        C669   1.231       .  A
O663        V666   1.815   1_565  S
O663        C668   1.227       .  A
O664       V1194   1.810   1_455  S
O664        C667   1.230       .  A
V665       O1186   2.041   1_455  S
V665       O1716   2.050   1_455  S
V665       V1194   1.948   1_455  T
V666       O1718   1.821   1_545  S
V666       O1192   1.810       .  S
V666       V1193   1.948       .  T
O671        V679   1.822       .  S
O671        C681   1.232       .  A
O672        C682   1.231       .  A
O673        C683   1.229       .  A
O674        V943   1.816   1_554  S
O674        C684   1.228       .  A
O675        C684   1.298       .  A
O676        V680   2.046       .  S
O676        C683   1.298       .  A
O677        V944   2.059   1_554  S
O677        C682   1.299       .  A
O678        C681   1.298       .  A
V679        O938   1.816       .  S
V680        O941   2.059       .  S
O685        V693   1.819       .  S
O685        C695   1.231       .  A
O686       V1221   1.816       .  S
O686        C696   1.228       .  A
O687        C697   1.229       .  A
O688       V1749   1.820       .  S
O688        C698   1.228       .  A
O689        C698   1.297       .  A
O690       V1750   2.037       .  S
O690        C697   1.296       .  A
O691        V694   2.054       .  S
O691        C696   1.299       .  A
O692       V1222   2.050       .  S
O692        C695   1.296       .  A
V693       O1214   1.816   1_455  S
V693       O1744   1.820   1_455  S
V693       V1222   1.949       .  T
V694       O1746   2.037       .  S
V694       O1220   2.050   1_565  S
V694       V1221   1.949       .  T
O699        V707   1.812       .  S
O699        C709   1.229       .  A
O700       V2027   1.811   1_554  S
O700        C710   1.228       .  A
O701        V971   1.811   1_554  S
O701        C711   1.229       .  A
O702       V1763   1.820       .  S
O702        C712   1.230       .  A
O703        V708   2.049       .  S
O703        C712   1.298       .  A
O704       V2028   2.042   1_554  S
O704        C711   1.297       .  A
O705        V972   2.051   1_554  S
O705        C710   1.299       .  A
O706       V1764   2.046       .  S
O706        C709   1.296       .  A
V707       O2020   1.811   1_455  S
V707        O965   1.811       .  S
V707       O1758   1.820   1_455  S
V707       V1764   1.953       .  T
V708       O2024   2.042       .  S
V708        O969   2.051       .  S
V708       O1762   2.046       .  S
V708       V1763   1.953       .  T
C713        C714   1.414       .  A
C713        C718   1.395       .  A
C713        F720   1.350       .  S
C714        C715   1.409       .  A
C715        C716   1.396       .  A
C715        F722   1.358       .  S
C716        C717   1.414       .  A
C716        F721   1.353       .  S
C717        C718   1.404       .  A
C718        F719   1.358       .  S
C723        C724   1.412       .  A
C723        C728   1.399       .  A
C723        F730   1.354       .  S
C724        C725   1.408       .  A
C725        C726   1.398       .  A
C725        F732   1.358       .  S
C726        C727   1.412       .  A
C726        F731   1.351       .  S
C727        C728   1.412       .  A
C728        F729   1.358       .  S
C733        C734   1.405       .  A
C733        C738   1.397       .  A
C733        F740   1.359       .  S
C734        C735   1.416       .  A
C735        C736   1.398       .  A
C735        F742   1.351       .  S
C736        C737   1.406       .  A
C736        F741   1.359       .  S
C737        C738   1.416       .  A
C738        F739   1.349       .  S
C743        C744   1.418       .  A
C743        C748   1.394       .  A
C743        F750   1.349       .  S
C744        C745   1.404       .  A
C745        C746   1.395       .  A
C745        F752   1.359       .  S
C746        C747   1.417       .  A
C746        F751   1.350       .  S
C747        C748   1.402       .  A
C748        F749   1.359       .  S
C753        C754   1.420       .  A
C753        C758   1.399       .  A
C753        F760   1.349       .  S
C754        C755   1.407       .  A
C755        C756   1.402       .  A
C755        F762   1.358       .  S
C756        C757   1.418       .  A
C756        F761   1.351       .  S
C757        C758   1.404       .  A
C758        F759   1.359       .  S
C763        C764   1.411       .  A
C763        C768   1.396       .  A
C763        F770   1.359       .  S
C764        C765   1.410       .  A
C765        C766   1.395       .  A
C765        F772   1.351       .  S
C766        C767   1.409       .  A
C766        F771   1.359       .  S
C767        C768   1.409       .  A
C768        F769   1.353       .  S
C773        C774   1.417       .  A
C773        C778   1.401       .  A
C773        F780   1.352       .  S
C774        C775   1.405       .  A
C775        C776   1.401       .  A
C775        F782   1.358       .  S
C776        C777   1.418       .  A
C776        F781   1.349       .  S
C777        C778   1.408       .  A
C778        F779   1.358       .  S
C783        C784   1.411       .  A
C783        C788   1.402       .  A
C783        F790   1.354       .  S
C784        C785   1.414       .  A
C785        C786   1.401       .  A
C785        F792   1.357       .  S
C786        C787   1.413       .  A
C786        F791   1.355       .  S
C787        C788   1.411       .  A
C788        F789   1.356       .  S
O793        V801   1.806       .  S
O793        C803   1.228       .  A
O794        V801   1.812       .  S
O794        C804   1.227       .  A
O795        V801   1.817       .  S
O795        C805   1.230       .  A
O796        V801   1.821       .  S
O796        C806   1.230       .  A
O797        V802   2.050       .  S
O797        C806   1.298       .  A
O798        V802   2.056       .  S
O798        C805   1.299       .  A
O799        V802   2.042       .  S
O799        C804   1.297       .  A
O800        V802   2.042       .  S
O800        C803   1.296       .  A
V801        V802   1.949       .  T
C803        C881   1.614       .  S
C804        C879   1.620       .  S
C805        C885   1.622       .  S
C806        C877   1.617       .  S
O807        V815   1.818       .  S
O807        C817   1.230       .  A
O808        V815   1.818       .  S
O808        C818   1.230       .  A
O809        V815   1.825       .  S
O809        C819   1.231       .  A
O810        V815   1.825       .  S
O810        C820   1.232       .  A
O811        V816   2.056       .  S
O811        C820   1.299       .  A
O812        V816   2.060       .  S
O812        C819   1.300       .  A
O813        V816   2.043       .  S
O813        C818   1.297       .  A
O814        V816   2.044       .  S
O814        C817   1.298       .  A
V815        V816   1.948       .  T
C817        C877   1.624       .  S
C818        C889   1.627       .  S
C819        C879   1.631       .  S
C820        C883   1.624       .  S
O821        V829   2.049       .  S
O821        C831   1.298       .  A
O822        V829   2.048       .  S
O822        C832   1.297       .  A
O823        V829   2.044       .  S
O823        C833   1.297       .  A
O824        V829   2.048       .  S
O824        C834   1.298       .  A
O825        V830   1.816       .  S
O825        C834   1.228       .  A
O826        V830   1.810       .  S
O826        C833   1.228       .  A
O827        V830   1.816       .  S
O827        C832   1.231       .  A
O828        V830   1.811       .  S
O828        C831   1.228       .  A
V829        V830   1.952       .  T
C831        C881   1.612       .  S
C832        C883   1.621       .  S
C833        C887   1.614       .  S
C834        C877   1.622       .  S
O835        V843   1.819       .  S
O835        C845   1.229       .  A
O836        V843   1.817       .  S
O836        C846   1.230       .  A
O837        V843   1.814       .  S
O837        C847   1.228       .  A
O838        V843   1.810       .  S
O838        C848   1.226       .  A
O839        V844   2.031       .  S
O839        C848   1.296       .  A
O840        V844   2.035       .  S
O840        C847   1.296       .  A
O841        V844   2.049       .  S
O841        C846   1.297       .  A
O842        V844   2.046       .  S
O842        C845   1.299       .  A
V843        V844   1.942       .  T
C845        C881   1.627       .  S
C846        C891   1.617       .  S
C847        C887   1.616       .  S
C848        C885   1.615       .  S
O849        V857   1.811       .  S
O849        C859   1.229       .  A
O850        V857   1.810       .  S
O850        C860   1.228       .  A
O851        V857   1.813       .  S
O851        C861   1.229       .  A
O852        V857   1.812       .  S
O852        C862   1.227       .  A
O853        V858   2.038       .  S
O853        C862   1.297       .  A
O854        V858   2.043       .  S
O854        C861   1.296       .  A
O855        V858   2.049       .  S
O855        C860   1.297       .  A
O856        V858   2.047       .  S
O856        C859   1.297       .  A
V857        V858   1.951       .  T
C859        C889   1.619       .  S
C860        C885   1.620       .  S
C861        C879   1.614       .  S
C862        C891   1.614       .  S
O863        V871   2.057       .  S
O863        C873   1.299       .  A
O864        V871   2.046       .  S
O864        C874   1.297       .  A
O865        V871   2.043       .  S
O865        C875   1.297       .  A
O866        V871   2.035       .  S
O866        C876   1.296       .  A
O867        V872   1.814       .  S
O867        C876   1.227       .  A
O868        V872   1.812       .  S
O868        C875   1.228       .  A
O869        V872   1.818       .  S
O869        C874   1.230       .  A
O870        V872   1.819       .  S
O870        C873   1.230       .  A
V871        V872   1.949       .  T
C873        C887   1.624       .  S
C874        C889   1.612       .  S
C875        C891   1.616       .  S
C876        C883   1.620       .  S
C877       C1051   1.536       .  S
C878        C947   1.621       .  S
C878        C960   1.616       .  S
C878        C976   1.631       .  S
C878       C1048   1.538       .  S
C879       C1038   1.535       .  S
C880        C917   1.609       .  S
C880        C945   1.633       .  S
C880        C962   1.624       .  S
C880       C1041   1.538       .  S
C881       C1028   1.524       .  S
C882        C905   1.621       .  S
C882        C961   1.609       .  S
C882        C973   1.616       .  S
C882       C1031   1.521       .  S
C883       C1018   1.540       .  S
C884        C932   1.620       .  S
C884        C946   1.630       .  S
C884        C974   1.619       .  S
C884       C1021   1.535       .  S
C885       C1008   1.526       .  S
C886        C903   1.610       .  S
C886        C919   1.615       .  S
C886        C959   1.621       .  S
C886       C1011   1.524       .  S
C887        C998   1.528       .  S
C888        C904   1.616       .  S
C888        C933   1.627       .  S
C888        C975   1.612       .  S
C888       C1001   1.530       .  S
C889        C991   1.531       .  S
C890        C920   1.622       .  S
C890        C934   1.616       .  S
C890        C948   1.623       .  S
C890        C988   1.527       .  S
C891        C981   1.523       .  S
C892        C906   1.613       .  S
C892        C918   1.623       .  S
C892        C931   1.616       .  S
C892        C978   1.528       .  S
O893        V901   2.027       .  S
O893        C903   1.295       .  A
O894        C904   1.296       .  A
O895        C905   1.298       .  A
O896        C906   1.298       .  A
O897        C906   1.229       .  A
O898        V902   1.821   1_565  S
O898        C905   1.228       .  A
O899        C904   1.228       .  A
O900        C903   1.228       .  A
O907        V915   2.042       .  S
O907        C917   1.296       .  A
O908       V1707   2.035   1_455  S
O908        C918   1.296       .  A
O909       V1971   2.044   1_455  S
O909        C919   1.297       .  A
O910        C920   1.299       .  A
O911       V1708   1.815       .  S
O911        C920   1.228       .  A
O912        V916   1.811   1_455  S
O912        C919   1.229       .  A
O913        C918   1.228       .  A
O914       V1972   1.811       .  S
O914        C917   1.229       .  A
V915       O1700   2.035   1_556  S
V915       O1965   2.044       .  S
V915       V1972   1.952       .  T
V916       O1703   1.815   1_556  S
V916       O1970   1.811       .  S
V916       V1971   1.952       .  T
O921        V929   2.041       .  S
O921        C931   1.295       .  A
O922       V1457   2.041   1_565  S
O922        C932   1.298       .  A
O923        C933   1.298       .  A
O924       V1985   2.050       .  S
O924        C934   1.299       .  A
O925        C934   1.227       .  A
O926       V1986   1.821   1_465  S
O926        C933   1.231       .  A
O927        V930   1.815   1_565  S
O927        C932   1.227       .  A
O928       V1458   1.810   1_455  S
O928        C931   1.230       .  A
V929       O1450   2.041   1_455  S
V929       O1980   2.050   1_455  S
V929       V1458   1.948   1_455  T
V930       O1982   1.821   1_545  S
V930       O1456   1.810       .  S
V930       V1457   1.948       .  T
O935        V943   1.822       .  S
O935        C945   1.232       .  A
O936        C946   1.231       .  A
O937        C947   1.229       .  A
O938        C948   1.228       .  A
O939        C948   1.298       .  A
O940        V944   2.046       .  S
O940        C947   1.298       .  A
O941        C946   1.299       .  A
O942        C945   1.298       .  A
O949        V957   1.819       .  S
O949        C959   1.231       .  A
O950       V1485   1.816       .  S
O950        C960   1.228       .  A
O951        C961   1.229       .  A
O952       V2013   1.820       .  S
O952        C962   1.228       .  A
O953        C962   1.297       .  A
O954       V2014   2.037       .  S
O954        C961   1.296       .  A
O955        V958   2.054       .  S
O955        C960   1.299       .  A
O956       V1486   2.050       .  S
O956        C959   1.296       .  A
V957       O1478   1.816   1_455  S
V957       O2008   1.820   1_455  S
V957       V1486   1.949       .  T
V958       O2010   2.037       .  S
V958       O1484   2.050   1_565  S
V958       V1485   1.949       .  T
O963        V971   1.812       .  S
O963        C973   1.229       .  A
O964       V1763   1.811       .  S
O964        C974   1.228       .  A
O965        C975   1.229       .  A
O966       V2027   1.820       .  S
O966        C976   1.230       .  A
O967        V972   2.049       .  S
O967        C976   1.298       .  A
O968       V1764   2.042       .  S
O968        C975   1.297       .  A
O969        C974   1.299       .  A
O970       V2028   2.046       .  S
O970        C973   1.296       .  A
V971       O1756   1.811   1_456  S
V971       O2022   1.820   1_455  S
V971       V2028   1.953       .  T
V972       O1760   2.042   1_556  S
V972       O2026   2.046       .  S
V972       V2027   1.953       .  T
C977        C978   1.414       .  A
C977        C982   1.395       .  A
C977        F984   1.350       .  S
C978        C979   1.409       .  A
C979        C980   1.396       .  A
C979        F986   1.358       .  S
C980        C981   1.414       .  A
C980        F985   1.353       .  S
C981        C982   1.404       .  A
C982        F983   1.358       .  S
C987        C988   1.412       .  A
C987        C992   1.399       .  A
C987        F994   1.354       .  S
C988        C989   1.408       .  A
C989        C990   1.398       .  A
C989        F996   1.358       .  S
C990        C991   1.412       .  A
C990        F995   1.351       .  S
C991        C992   1.412       .  A
C992        F993   1.358       .  S
C997        C998   1.405       .  A
C997       C1002   1.397       .  A
C997       F1004   1.359       .  S
C998        C999   1.416       .  A
C999       C1000   1.398       .  A
C999       F1006   1.351       .  S
C1000      C1001   1.406       .  A
C1000      F1005   1.359       .  S
C1001      C1002   1.416       .  A
C1002      F1003   1.349       .  S
C1007      C1008   1.418       .  A
C1007      C1012   1.394       .  A
C1007      F1014   1.349       .  S
C1008      C1009   1.404       .  A
C1009      C1010   1.395       .  A
C1009      F1016   1.359       .  S
C1010      C1011   1.417       .  A
C1010      F1015   1.350       .  S
C1011      C1012   1.402       .  A
C1012      F1013   1.359       .  S
C1017      C1018   1.420       .  A
C1017      C1022   1.399       .  A
C1017      F1024   1.349       .  S
C1018      C1019   1.407       .  A
C1019      C1020   1.402       .  A
C1019      F1026   1.358       .  S
C1020      C1021   1.418       .  A
C1020      F1025   1.351       .  S
C1021      C1022   1.404       .  A
C1022      F1023   1.359       .  S
C1027      C1028   1.411       .  A
C1027      C1032   1.396       .  A
C1027      F1034   1.359       .  S
C1028      C1029   1.410       .  A
C1029      C1030   1.395       .  A
C1029      F1036   1.351       .  S
C1030      C1031   1.409       .  A
C1030      F1035   1.359       .  S
C1031      C1032   1.409       .  A
C1032      F1033   1.353       .  S
C1037      C1038   1.417       .  A
C1037      C1042   1.401       .  A
C1037      F1044   1.352       .  S
C1038      C1039   1.405       .  A
C1039      C1040   1.401       .  A
C1039      F1046   1.358       .  S
C1040      C1041   1.418       .  A
C1040      F1045   1.349       .  S
C1041      C1042   1.408       .  A
C1042      F1043   1.358       .  S
C1047      C1048   1.411       .  A
C1047      C1052   1.402       .  A
C1047      F1054   1.354       .  S
C1048      C1049   1.414       .  A
C1049      C1050   1.401       .  A
C1049      F1056   1.357       .  S
C1050      C1051   1.413       .  A
C1050      F1055   1.355       .  S
C1051      C1052   1.411       .  A
C1052      F1053   1.356       .  S
O1057      V1065   1.806       .  S
O1057      C1067   1.228       .  A
O1058      V1065   1.812       .  S
O1058      C1068   1.227       .  A
O1059      V1065   1.817       .  S
O1059      C1069   1.230       .  A
O1060      V1065   1.821       .  S
O1060      C1070   1.230       .  A
O1061      V1066   2.050       .  S
O1061      C1070   1.298       .  A
O1062      V1066   2.056       .  S
O1062      C1069   1.299       .  A
O1063      V1066   2.042       .  S
O1063      C1068   1.297       .  A
O1064      V1066   2.042       .  S
O1064      C1067   1.296       .  A
V1065      V1066   1.949       .  T
C1067      C1145   1.614       .  S
C1068      C1143   1.620       .  S
C1069      C1149   1.622       .  S
C1070      C1141   1.617       .  S
O1071      V1079   1.818       .  S
O1071      C1081   1.230       .  A
O1072      V1079   1.818       .  S
O1072      C1082   1.230       .  A
O1073      V1079   1.825       .  S
O1073      C1083   1.231       .  A
O1074      V1079   1.825       .  S
O1074      C1084   1.232       .  A
O1075      V1080   2.056       .  S
O1075      C1084   1.299       .  A
O1076      V1080   2.060       .  S
O1076      C1083   1.300       .  A
O1077      V1080   2.043       .  S
O1077      C1082   1.297       .  A
O1078      V1080   2.044       .  S
O1078      C1081   1.298       .  A
V1079      V1080   1.948       .  T
C1081      C1141   1.624       .  S
C1082      C1153   1.627       .  S
C1083      C1143   1.631       .  S
C1084      C1147   1.624       .  S
O1085      V1093   2.049       .  S
O1085      C1095   1.298       .  A
O1086      V1093   2.048       .  S
O1086      C1096   1.297       .  A
O1087      V1093   2.044       .  S
O1087      C1097   1.297       .  A
O1088      V1093   2.048       .  S
O1088      C1098   1.298       .  A
O1089      V1094   1.816       .  S
O1089      C1098   1.228       .  A
O1090      V1094   1.810       .  S
O1090      C1097   1.228       .  A
O1091      V1094   1.816       .  S
O1091      C1096   1.231       .  A
O1092      V1094   1.811       .  S
O1092      C1095   1.228       .  A
V1093      V1094   1.952       .  T
C1095      C1145   1.612       .  S
C1096      C1147   1.621       .  S
C1097      C1151   1.614       .  S
C1098      C1141   1.622       .  S
O1099      V1107   1.819       .  S
O1099      C1109   1.229       .  A
O1100      V1107   1.817       .  S
O1100      C1110   1.230       .  A
O1101      V1107   1.814       .  S
O1101      C1111   1.228       .  A
O1102      V1107   1.810       .  S
O1102      C1112   1.226       .  A
O1103      V1108   2.031       .  S
O1103      C1112   1.296       .  A
O1104      V1108   2.035       .  S
O1104      C1111   1.296       .  A
O1105      V1108   2.049       .  S
O1105      C1110   1.297       .  A
O1106      V1108   2.046       .  S
O1106      C1109   1.299       .  A
V1107      V1108   1.942       .  T
C1109      C1145   1.627       .  S
C1110      C1155   1.617       .  S
C1111      C1151   1.616       .  S
C1112      C1149   1.615       .  S
O1113      V1121   1.811       .  S
O1113      C1123   1.229       .  A
O1114      V1121   1.810       .  S
O1114      C1124   1.228       .  A
O1115      V1121   1.813       .  S
O1115      C1125   1.229       .  A
O1116      V1121   1.812       .  S
O1116      C1126   1.227       .  A
O1117      V1122   2.038       .  S
O1117      C1126   1.297       .  A
O1118      V1122   2.043       .  S
O1118      C1125   1.296       .  A
O1119      V1122   2.049       .  S
O1119      C1124   1.297       .  A
O1120      V1122   2.047       .  S
O1120      C1123   1.297       .  A
V1121      V1122   1.951       .  T
C1123      C1153   1.619       .  S
C1124      C1149   1.620       .  S
C1125      C1143   1.614       .  S
C1126      C1155   1.614       .  S
O1127      V1135   2.057       .  S
O1127      C1137   1.299       .  A
O1128      V1135   2.046       .  S
O1128      C1138   1.297       .  A
O1129      V1135   2.043       .  S
O1129      C1139   1.297       .  A
O1130      V1135   2.035       .  S
O1130      C1140   1.296       .  A
O1131      V1136   1.814       .  S
O1131      C1140   1.227       .  A
O1132      V1136   1.812       .  S
O1132      C1139   1.228       .  A
O1133      V1136   1.818       .  S
O1133      C1138   1.230       .  A
O1134      V1136   1.819       .  S
O1134      C1137   1.230       .  A
V1135      V1136   1.949       .  T
C1137      C1151   1.624       .  S
C1138      C1153   1.612       .  S
C1139      C1155   1.616       .  S
C1140      C1147   1.620       .  S
C1141      C1315   1.536       .  S
C1142      C1211   1.621       .  S
C1142      C1224   1.616       .  S
C1142      C1240   1.631       .  S
C1142      C1312   1.538       .  S
C1143      C1302   1.535       .  S
C1144      C1181   1.609       .  S
C1144      C1209   1.633       .  S
C1144      C1226   1.624       .  S
C1144      C1305   1.538       .  S
C1145      C1292   1.524       .  S
C1146      C1169   1.621       .  S
C1146      C1225   1.609       .  S
C1146      C1237   1.616       .  S
C1146      C1295   1.521       .  S
C1147      C1282   1.540       .  S
C1148      C1196   1.620       .  S
C1148      C1210   1.630       .  S
C1148      C1238   1.619       .  S
C1148      C1285   1.535       .  S
C1149      C1272   1.526       .  S
C1150      C1167   1.610       .  S
C1150      C1183   1.615       .  S
C1150      C1223   1.621       .  S
C1150      C1275   1.524       .  S
C1151      C1262   1.528       .  S
C1152      C1168   1.616       .  S
C1152      C1197   1.627       .  S
C1152      C1239   1.612       .  S
C1152      C1265   1.530       .  S
C1153      C1255   1.531       .  S
C1154      C1184   1.622       .  S
C1154      C1198   1.616       .  S
C1154      C1212   1.623       .  S
C1154      C1252   1.527       .  S
C1155      C1245   1.523       .  S
C1156      C1170   1.613       .  S
C1156      C1182   1.623       .  S
C1156      C1195   1.616       .  S
C1156      C1242   1.528       .  S
O1157      V1165   2.027       .  S
O1157      C1167   1.295       .  A
O1158      V1957   2.034   1_554  S
O1158      C1168   1.296       .  A
O1159      V1693   2.047       .  S
O1159      C1169   1.298       .  A
O1160      V1429   2.050   1_554  S
O1160      C1170   1.298       .  A
O1161      V1958   1.818   1_554  S
O1161      C1170   1.229       .  A
O1162      V1166   1.821       .  S
O1162      C1169   1.228       .  A
O1163      V1430   1.816   1_554  S
O1163      C1168   1.228       .  A
O1164      V1694   1.815       .  S
O1164      C1167   1.228       .  A
V1165      O1950   2.034   1_545  S
V1165      O1687   2.047   1_545  S
V1165      O1424   2.050       .  S
V1165      V1694   1.942       .  T
V1166      O1953   1.818       .  S
V1166      O1427   1.816       .  S
V1166      O1692   1.815       .  S
V1166      V1693   1.942       .  T
O1171      V1179   2.042       .  S
O1171      C1181   1.296       .  A
O1172      C1182   1.296       .  A
O1173      C1183   1.297       .  A
O1174      V1443   2.051   1_554  S
O1174      C1184   1.299       .  A
O1175      C1184   1.228       .  A
O1176      V1180   1.811       .  S
O1176      C1183   1.229       .  A
O1177      V1444   1.814   1_554  S
O1177      C1182   1.228       .  A
O1178      C1181   1.229       .  A
V1179      O1438   2.051       .  S
V1180      O1441   1.814       .  S
O1185      V1193   2.041       .  S
O1185      C1195   1.295       .  A
O1186      C1196   1.298       .  A
O1187      V1721   2.055       .  S
O1187      C1197   1.298       .  A
O1188      C1198   1.299       .  A
O1189      V1722   1.811       .  S
O1189      C1198   1.227       .  A
O1190      C1197   1.231       .  A
O1191      V1194   1.815       .  S
O1191      C1196   1.227       .  A
O1192      C1195   1.230       .  A
V1193      O1715   2.055   1_545  S
V1194      O1717   1.811       .  S
O1199      V1207   1.822   1_545  S
O1199      C1209   1.232       .  A
O1200      V1999   1.821   1_554  S
O1200      C1210   1.231       .  A
O1201      V1735   1.813       .  S
O1201      C1211   1.229       .  A
O1202      V1471   1.816   1_544  S
O1202      C1212   1.228       .  A
O1203      V2000   2.047   1_544  S
O1203      C1212   1.298       .  A
O1204      V1208   2.046       .  S
O1204      C1211   1.298       .  A
O1205      V1472   2.059   1_554  S
O1205      C1210   1.299       .  A
O1206      V1736   2.057   1_545  S
O1206      C1209   1.298       .  A
V1207      O1992   1.821       .  S
V1207      O1729   1.813       .  S
V1207      O1466   1.816   1_565  S
V1207      V1736   1.948       .  T
V1208      O1995   2.047       .  S
V1208      O1469   2.059       .  S
V1208      O1734   2.057       .  S
V1208      V1735   1.948       .  T
O1213      V1221   1.819   1_545  S
O1213      C1223   1.231       .  A
O1214      C1224   1.228       .  A
O1215      V1749   1.810       .  S
O1215      C1225   1.229       .  A
O1216      C1226   1.228       .  A
O1217      V1750   2.041   1_645  S
O1217      C1226   1.297       .  A
O1218      C1225   1.296       .  A
O1219      V1222   2.054   1_655  S
O1219      C1224   1.299       .  A
O1220      C1223   1.296       .  A
V1221      O1743   1.810       .  S
V1222      O1745   2.041   1_455  S
O1227      V1235   1.812       .  S
O1227      C1237   1.229       .  A
O1228      C1238   1.228       .  A
O1229      V1499   1.811   1_554  S
O1229      C1239   1.229       .  A
O1230      C1240   1.230       .  A
O1231      V1236   2.049   1_655  S
O1231      C1240   1.298       .  A
O1232      C1239   1.297       .  A
O1233      V1500   2.051   1_654  S
O1233      C1238   1.299       .  A
O1234      C1237   1.296       .  A
V1235      O1493   1.811       .  S
V1236      O1497   2.051   1_455  S
C1241      C1242   1.414       .  A
C1241      C1246   1.395       .  A
C1241      F1248   1.350       .  S
C1242      C1243   1.409       .  A
C1243      C1244   1.396       .  A
C1243      F1250   1.358       .  S
C1244      C1245   1.414       .  A
C1244      F1249   1.353       .  S
C1245      C1246   1.404       .  A
C1246      F1247   1.358       .  S
C1251      C1252   1.412       .  A
C1251      C1256   1.399       .  A
C1251      F1258   1.354       .  S
C1252      C1253   1.408       .  A
C1253      C1254   1.398       .  A
C1253      F1260   1.358       .  S
C1254      C1255   1.412       .  A
C1254      F1259   1.351       .  S
C1255      C1256   1.412       .  A
C1256      F1257   1.358       .  S
C1261      C1262   1.405       .  A
C1261      C1266   1.397       .  A
C1261      F1268   1.359       .  S
C1262      C1263   1.416       .  A
C1263      C1264   1.398       .  A
C1263      F1270   1.351       .  S
C1264      C1265   1.406       .  A
C1264      F1269   1.359       .  S
C1265      C1266   1.416       .  A
C1266      F1267   1.349       .  S
C1271      C1272   1.418       .  A
C1271      C1276   1.394       .  A
C1271      F1278   1.349       .  S
C1272      C1273   1.404       .  A
C1273      C1274   1.395       .  A
C1273      F1280   1.359       .  S
C1274      C1275   1.417       .  A
C1274      F1279   1.350       .  S
C1275      C1276   1.402       .  A
C1276      F1277   1.359       .  S
C1281      C1282   1.420       .  A
C1281      C1286   1.399       .  A
C1281      F1288   1.349       .  S
C1282      C1283   1.407       .  A
C1283      C1284   1.402       .  A
C1283      F1290   1.358       .  S
C1284      C1285   1.418       .  A
C1284      F1289   1.351       .  S
C1285      C1286   1.404       .  A
C1286      F1287   1.359       .  S
C1291      C1292   1.411       .  A
C1291      C1296   1.396       .  A
C1291      F1298   1.359       .  S
C1292      C1293   1.410       .  A
C1293      C1294   1.395       .  A
C1293      F1300   1.351       .  S
C1294      C1295   1.409       .  A
C1294      F1299   1.359       .  S
C1295      C1296   1.409       .  A
C1296      F1297   1.353       .  S
C1301      C1302   1.417       .  A
C1301      C1306   1.401       .  A
C1301      F1308   1.352       .  S
C1302      C1303   1.405       .  A
C1303      C1304   1.401       .  A
C1303      F1310   1.358       .  S
C1304      C1305   1.418       .  A
C1304      F1309   1.349       .  S
C1305      C1306   1.408       .  A
C1306      F1307   1.358       .  S
C1311      C1312   1.411       .  A
C1311      C1316   1.402       .  A
C1311      F1318   1.354       .  S
C1312      C1313   1.414       .  A
C1313      C1314   1.401       .  A
C1313      F1320   1.357       .  S
C1314      C1315   1.413       .  A
C1314      F1319   1.355       .  S
C1315      C1316   1.411       .  A
C1316      F1317   1.356       .  S
O1321      V1329   1.806       .  S
O1321      C1331   1.228       .  A
O1322      V1329   1.812       .  S
O1322      C1332   1.227       .  A
O1323      V1329   1.817       .  S
O1323      C1333   1.230       .  A
O1324      V1329   1.821       .  S
O1324      C1334   1.230       .  A
O1325      V1330   2.050       .  S
O1325      C1334   1.298       .  A
O1326      V1330   2.056       .  S
O1326      C1333   1.299       .  A
O1327      V1330   2.042       .  S
O1327      C1332   1.297       .  A
O1328      V1330   2.042       .  S
O1328      C1331   1.296       .  A
V1329      V1330   1.949       .  T
C1331      C1409   1.614       .  S
C1332      C1407   1.620       .  S
C1333      C1413   1.622       .  S
C1334      C1405   1.617       .  S
O1335      V1343   1.818       .  S
O1335      C1345   1.230       .  A
O1336      V1343   1.818       .  S
O1336      C1346   1.230       .  A
O1337      V1343   1.825       .  S
O1337      C1347   1.231       .  A
O1338      V1343   1.825       .  S
O1338      C1348   1.232       .  A
O1339      V1344   2.056       .  S
O1339      C1348   1.299       .  A
O1340      V1344   2.060       .  S
O1340      C1347   1.300       .  A
O1341      V1344   2.043       .  S
O1341      C1346   1.297       .  A
O1342      V1344   2.044       .  S
O1342      C1345   1.298       .  A
V1343      V1344   1.948       .  T
C1345      C1405   1.624       .  S
C1346      C1417   1.627       .  S
C1347      C1407   1.631       .  S
C1348      C1411   1.624       .  S
O1349      V1357   2.049       .  S
O1349      C1359   1.298       .  A
O1350      V1357   2.048       .  S
O1350      C1360   1.297       .  A
O1351      V1357   2.044       .  S
O1351      C1361   1.297       .  A
O1352      V1357   2.048       .  S
O1352      C1362   1.298       .  A
O1353      V1358   1.816       .  S
O1353      C1362   1.228       .  A
O1354      V1358   1.810       .  S
O1354      C1361   1.228       .  A
O1355      V1358   1.816       .  S
O1355      C1360   1.231       .  A
O1356      V1358   1.811       .  S
O1356      C1359   1.228       .  A
V1357      V1358   1.952       .  T
C1359      C1409   1.612       .  S
C1360      C1411   1.621       .  S
C1361      C1415   1.614       .  S
C1362      C1405   1.622       .  S
O1363      V1371   1.819       .  S
O1363      C1373   1.229       .  A
O1364      V1371   1.817       .  S
O1364      C1374   1.230       .  A
O1365      V1371   1.814       .  S
O1365      C1375   1.228       .  A
O1366      V1371   1.810       .  S
O1366      C1376   1.226       .  A
O1367      V1372   2.031       .  S
O1367      C1376   1.296       .  A
O1368      V1372   2.035       .  S
O1368      C1375   1.296       .  A
O1369      V1372   2.049       .  S
O1369      C1374   1.297       .  A
O1370      V1372   2.046       .  S
O1370      C1373   1.299       .  A
V1371      V1372   1.942       .  T
C1373      C1409   1.627       .  S
C1374      C1419   1.617       .  S
C1375      C1415   1.616       .  S
C1376      C1413   1.615       .  S
O1377      V1385   1.811       .  S
O1377      C1387   1.229       .  A
O1378      V1385   1.810       .  S
O1378      C1388   1.228       .  A
O1379      V1385   1.813       .  S
O1379      C1389   1.229       .  A
O1380      V1385   1.812       .  S
O1380      C1390   1.227       .  A
O1381      V1386   2.038       .  S
O1381      C1390   1.297       .  A
O1382      V1386   2.043       .  S
O1382      C1389   1.296       .  A
O1383      V1386   2.049       .  S
O1383      C1388   1.297       .  A
O1384      V1386   2.047       .  S
O1384      C1387   1.297       .  A
V1385      V1386   1.951       .  T
C1387      C1417   1.619       .  S
C1388      C1413   1.620       .  S
C1389      C1407   1.614       .  S
C1390      C1419   1.614       .  S
O1391      V1399   2.057       .  S
O1391      C1401   1.299       .  A
O1392      V1399   2.046       .  S
O1392      C1402   1.297       .  A
O1393      V1399   2.043       .  S
O1393      C1403   1.297       .  A
O1394      V1399   2.035       .  S
O1394      C1404   1.296       .  A
O1395      V1400   1.814       .  S
O1395      C1404   1.227       .  A
O1396      V1400   1.812       .  S
O1396      C1403   1.228       .  A
O1397      V1400   1.818       .  S
O1397      C1402   1.230       .  A
O1398      V1400   1.819       .  S
O1398      C1401   1.230       .  A
V1399      V1400   1.949       .  T
C1401      C1415   1.624       .  S
C1402      C1417   1.612       .  S
C1403      C1419   1.616       .  S
C1404      C1411   1.620       .  S
C1405      C1579   1.536       .  S
C1406      C1475   1.621       .  S
C1406      C1488   1.616       .  S
C1406      C1504   1.631       .  S
C1406      C1576   1.538       .  S
C1407      C1566   1.535       .  S
C1408      C1445   1.609       .  S
C1408      C1473   1.633       .  S
C1408      C1490   1.624       .  S
C1408      C1569   1.538       .  S
C1409      C1556   1.524       .  S
C1410      C1433   1.621       .  S
C1410      C1489   1.609       .  S
C1410      C1501   1.616       .  S
C1410      C1559   1.521       .  S
C1411      C1546   1.540       .  S
C1412      C1460   1.620       .  S
C1412      C1474   1.630       .  S
C1412      C1502   1.619       .  S
C1412      C1549   1.535       .  S
C1413      C1536   1.526       .  S
C1414      C1431   1.610       .  S
C1414      C1447   1.615       .  S
C1414      C1487   1.621       .  S
C1414      C1539   1.524       .  S
C1415      C1526   1.528       .  S
C1416      C1432   1.616       .  S
C1416      C1461   1.627       .  S
C1416      C1503   1.612       .  S
C1416      C1529   1.530       .  S
C1417      C1519   1.531       .  S
C1418      C1448   1.622       .  S
C1418      C1462   1.616       .  S
C1418      C1476   1.623       .  S
C1418      C1516   1.527       .  S
C1419      C1509   1.523       .  S
C1420      C1434   1.613       .  S
C1420      C1446   1.623       .  S
C1420      C1459   1.616       .  S
C1420      C1506   1.528       .  S
O1421      V1429   2.027       .  S
O1421      C1431   1.295       .  A
O1422      V1693   2.034       .  S
O1422      C1432   1.296       .  A
O1423      V1957   2.047       .  S
O1423      C1433   1.298       .  A
O1424      C1434   1.298       .  A
O1425      V1694   1.818       .  S
O1425      C1434   1.229       .  A
O1426      V1430   1.821       .  S
O1426      C1433   1.228       .  A
O1427      C1432   1.228       .  A
O1428      V1958   1.815       .  S
O1428      C1431   1.228       .  A
V1429      O1686   2.034   1_546  S
V1429      O1951   2.047   1_545  S
V1429      V1958   1.942       .  T
V1430      O1689   1.818   1_556  S
V1430      O1956   1.815       .  S
V1430      V1957   1.942       .  T
O1435      V1443   2.042       .  S
O1435      C1445   1.296       .  A
O1436      C1446   1.296       .  A
O1437      C1447   1.297       .  A
O1438      C1448   1.299       .  A
O1439      C1448   1.228       .  A
O1440      V1444   1.811       .  S
O1440      C1447   1.229       .  A
O1441      C1446   1.228       .  A
O1442      C1445   1.229       .  A
O1449      V1457   2.041       .  S
O1449      C1459   1.295       .  A
O1450      C1460   1.298       .  A
O1451      V1985   2.055       .  S
O1451      C1461   1.298       .  A
O1452      C1462   1.299       .  A
O1453      V1986   1.811       .  S
O1453      C1462   1.227       .  A
O1454      C1461   1.231       .  A
O1455      V1458   1.815       .  S
O1455      C1460   1.227       .  A
O1456      C1459   1.230       .  A
V1457      O1979   2.055   1_545  S
V1458      O1981   1.811       .  S
O1463      V1471   1.822   1_545  S
O1463      C1473   1.232       .  A
O1464      V1735   1.821       .  S
O1464      C1474   1.231       .  A
O1465      V1999   1.813       .  S
O1465      C1475   1.229       .  A
O1466      C1476   1.228       .  A
O1467      V1736   2.047   1_545  S
O1467      C1476   1.298       .  A
O1468      V1472   2.046       .  S
O1468      C1475   1.298       .  A
O1469      C1474   1.299       .  A
O1470      V2000   2.057   1_545  S
O1470      C1473   1.298       .  A
V1471      O1728   1.821   1_556  S
V1471      O1993   1.813       .  S
V1471      V2000   1.948       .  T
V1472      O1731   2.047   1_556  S
V1472      O1998   2.057       .  S
V1472      V1999   1.948       .  T
O1477      V1485   1.819   1_545  S
O1477      C1487   1.231       .  A
O1478      C1488   1.228       .  A
O1479      V2013   1.810       .  S
O1479      C1489   1.229       .  A
O1480      C1490   1.228       .  A
O1481      V2014   2.041   1_645  S
O1481      C1490   1.297       .  A
O1482      C1489   1.296       .  A
O1483      V1486   2.054   1_655  S
O1483      C1488   1.299       .  A
O1484      C1487   1.296       .  A
V1485      O2007   1.810       .  S
V1486      O2009   2.041   1_455  S
O1491      V1499   1.812       .  S
O1491      C1501   1.229       .  A
O1492      C1502   1.228       .  A
O1493      C1503   1.229       .  A
O1494      C1504   1.230       .  A
O1495      V1500   2.049   1_655  S
O1495      C1504   1.298       .  A
O1496      C1503   1.297       .  A
O1497      C1502   1.299       .  A
O1498      C1501   1.296       .  A
C1505      C1506   1.414       .  A
C1505      C1510   1.395       .  A
C1505      F1512   1.350       .  S
C1506      C1507   1.409       .  A
C1507      C1508   1.396       .  A
C1507      F1514   1.358       .  S
C1508      C1509   1.414       .  A
C1508      F1513   1.353       .  S
C1509      C1510   1.404       .  A
C1510      F1511   1.358       .  S
C1515      C1516   1.412       .  A
C1515      C1520   1.399       .  A
C1515      F1522   1.354       .  S
C1516      C1517   1.408       .  A
C1517      C1518   1.398       .  A
C1517      F1524   1.358       .  S
C1518      C1519   1.412       .  A
C1518      F1523   1.351       .  S
C1519      C1520   1.412       .  A
C1520      F1521   1.358       .  S
C1525      C1526   1.405       .  A
C1525      C1530   1.397       .  A
C1525      F1532   1.359       .  S
C1526      C1527   1.416       .  A
C1527      C1528   1.398       .  A
C1527      F1534   1.351       .  S
C1528      C1529   1.406       .  A
C1528      F1533   1.359       .  S
C1529      C1530   1.416       .  A
C1530      F1531   1.349       .  S
C1535      C1536   1.418       .  A
C1535      C1540   1.394       .  A
C1535      F1542   1.349       .  S
C1536      C1537   1.404       .  A
C1537      C1538   1.395       .  A
C1537      F1544   1.359       .  S
C1538      C1539   1.417       .  A
C1538      F1543   1.350       .  S
C1539      C1540   1.402       .  A
C1540      F1541   1.359       .  S
C1545      C1546   1.420       .  A
C1545      C1550   1.399       .  A
C1545      F1552   1.349       .  S
C1546      C1547   1.407       .  A
C1547      C1548   1.402       .  A
C1547      F1554   1.358       .  S
C1548      C1549   1.418       .  A
C1548      F1553   1.351       .  S
C1549      C1550   1.404       .  A
C1550      F1551   1.359       .  S
C1555      C1556   1.411       .  A
C1555      C1560   1.396       .  A
C1555      F1562   1.359       .  S
C1556      C1557   1.410       .  A
C1557      C1558   1.395       .  A
C1557      F1564   1.351       .  S
C1558      C1559   1.409       .  A
C1558      F1563   1.359       .  S
C1559      C1560   1.409       .  A
C1560      F1561   1.353       .  S
C1565      C1566   1.417       .  A
C1565      C1570   1.401       .  A
C1565      F1572   1.352       .  S
C1566      C1567   1.405       .  A
C1567      C1568   1.401       .  A
C1567      F1574   1.358       .  S
C1568      C1569   1.418       .  A
C1568      F1573   1.349       .  S
C1569      C1570   1.408       .  A
C1570      F1571   1.358       .  S
C1575      C1576   1.411       .  A
C1575      C1580   1.402       .  A
C1575      F1582   1.354       .  S
C1576      C1577   1.414       .  A
C1577      C1578   1.401       .  A
C1577      F1584   1.357       .  S
C1578      C1579   1.413       .  A
C1578      F1583   1.355       .  S
C1579      C1580   1.411       .  A
C1580      F1581   1.356       .  S
O1585      V1593   1.806       .  S
O1585      C1595   1.228       .  A
O1586      V1593   1.812       .  S
O1586      C1596   1.227       .  A
O1587      V1593   1.817       .  S
O1587      C1597   1.230       .  A
O1588      V1593   1.821       .  S
O1588      C1598   1.230       .  A
O1589      V1594   2.050       .  S
O1589      C1598   1.298       .  A
O1590      V1594   2.056       .  S
O1590      C1597   1.299       .  A
O1591      V1594   2.042       .  S
O1591      C1596   1.297       .  A
O1592      V1594   2.042       .  S
O1592      C1595   1.296       .  A
V1593      V1594   1.949       .  T
C1595      C1673   1.614       .  S
C1596      C1671   1.620       .  S
C1597      C1677   1.622       .  S
C1598      C1669   1.617       .  S
O1599      V1607   1.818       .  S
O1599      C1609   1.230       .  A
O1600      V1607   1.818       .  S
O1600      C1610   1.230       .  A
O1601      V1607   1.825       .  S
O1601      C1611   1.231       .  A
O1602      V1607   1.825       .  S
O1602      C1612   1.232       .  A
O1603      V1608   2.056       .  S
O1603      C1612   1.299       .  A
O1604      V1608   2.060       .  S
O1604      C1611   1.300       .  A
O1605      V1608   2.043       .  S
O1605      C1610   1.297       .  A
O1606      V1608   2.044       .  S
O1606      C1609   1.298       .  A
V1607      V1608   1.948       .  T
C1609      C1669   1.624       .  S
C1610      C1681   1.627       .  S
C1611      C1671   1.631       .  S
C1612      C1675   1.624       .  S
O1613      V1621   2.049       .  S
O1613      C1623   1.298       .  A
O1614      V1621   2.048       .  S
O1614      C1624   1.297       .  A
O1615      V1621   2.044       .  S
O1615      C1625   1.297       .  A
O1616      V1621   2.048       .  S
O1616      C1626   1.298       .  A
O1617      V1622   1.816       .  S
O1617      C1626   1.228       .  A
O1618      V1622   1.810       .  S
O1618      C1625   1.228       .  A
O1619      V1622   1.816       .  S
O1619      C1624   1.231       .  A
O1620      V1622   1.811       .  S
O1620      C1623   1.228       .  A
V1621      V1622   1.952       .  T
C1623      C1673   1.612       .  S
C1624      C1675   1.621       .  S
C1625      C1679   1.614       .  S
C1626      C1669   1.622       .  S
O1627      V1635   1.819       .  S
O1627      C1637   1.229       .  A
O1628      V1635   1.817       .  S
O1628      C1638   1.230       .  A
O1629      V1635   1.814       .  S
O1629      C1639   1.228       .  A
O1630      V1635   1.810       .  S
O1630      C1640   1.226       .  A
O1631      V1636   2.031       .  S
O1631      C1640   1.296       .  A
O1632      V1636   2.035       .  S
O1632      C1639   1.296       .  A
O1633      V1636   2.049       .  S
O1633      C1638   1.297       .  A
O1634      V1636   2.046       .  S
O1634      C1637   1.299       .  A
V1635      V1636   1.942       .  T
C1637      C1673   1.627       .  S
C1638      C1683   1.617       .  S
C1639      C1679   1.616       .  S
C1640      C1677   1.615       .  S
O1641      V1649   1.811       .  S
O1641      C1651   1.229       .  A
O1642      V1649   1.810       .  S
O1642      C1652   1.228       .  A
O1643      V1649   1.813       .  S
O1643      C1653   1.229       .  A
O1644      V1649   1.812       .  S
O1644      C1654   1.227       .  A
O1645      V1650   2.038       .  S
O1645      C1654   1.297       .  A
O1646      V1650   2.043       .  S
O1646      C1653   1.296       .  A
O1647      V1650   2.049       .  S
O1647      C1652   1.297       .  A
O1648      V1650   2.047       .  S
O1648      C1651   1.297       .  A
V1649      V1650   1.951       .  T
C1651      C1681   1.619       .  S
C1652      C1677   1.620       .  S
C1653      C1671   1.614       .  S
C1654      C1683   1.614       .  S
O1655      V1663   2.057       .  S
O1655      C1665   1.299       .  A
O1656      V1663   2.046       .  S
O1656      C1666   1.297       .  A
O1657      V1663   2.043       .  S
O1657      C1667   1.297       .  A
O1658      V1663   2.035       .  S
O1658      C1668   1.296       .  A
O1659      V1664   1.814       .  S
O1659      C1668   1.227       .  A
O1660      V1664   1.812       .  S
O1660      C1667   1.228       .  A
O1661      V1664   1.818       .  S
O1661      C1666   1.230       .  A
O1662      V1664   1.819       .  S
O1662      C1665   1.230       .  A
V1663      V1664   1.949       .  T
C1665      C1679   1.624       .  S
C1666      C1681   1.612       .  S
C1667      C1683   1.616       .  S
C1668      C1675   1.620       .  S
C1669      C1843   1.536       .  S
C1670      C1739   1.621       .  S
C1670      C1752   1.616       .  S
C1670      C1768   1.631       .  S
C1670      C1840   1.538       .  S
C1671      C1830   1.535       .  S
C1672      C1709   1.609       .  S
C1672      C1737   1.633       .  S
C1672      C1754   1.624       .  S
C1672      C1833   1.538       .  S
C1673      C1820   1.524       .  S
C1674      C1697   1.621       .  S
C1674      C1753   1.609       .  S
C1674      C1765   1.616       .  S
C1674      C1823   1.521       .  S
C1675      C1810   1.540       .  S
C1676      C1724   1.620       .  S
C1676      C1738   1.630       .  S
C1676      C1766   1.619       .  S
C1676      C1813   1.535       .  S
C1677      C1800   1.526       .  S
C1678      C1695   1.610       .  S
C1678      C1711   1.615       .  S
C1678      C1751   1.621       .  S
C1678      C1803   1.524       .  S
C1679      C1790   1.528       .  S
C1680      C1696   1.616       .  S
C1680      C1725   1.627       .  S
C1680      C1767   1.612       .  S
C1680      C1793   1.530       .  S
C1681      C1783   1.531       .  S
C1682      C1712   1.622       .  S
C1682      C1726   1.616       .  S
C1682      C1740   1.623       .  S
C1682      C1780   1.527       .  S
C1683      C1773   1.523       .  S
C1684      C1698   1.613       .  S
C1684      C1710   1.623       .  S
C1684      C1723   1.616       .  S
C1684      C1770   1.528       .  S
O1685      V1693   2.027       .  S
O1685      C1695   1.295       .  A
O1686      C1696   1.296       .  A
O1687      C1697   1.298       .  A
O1688      V1957   2.050   1_554  S
O1688      C1698   1.298       .  A
O1689      C1698   1.229       .  A
O1690      V1694   1.821   1_565  S
O1690      C1697   1.228       .  A
O1691      V1958   1.816   1_564  S
O1691      C1696   1.228       .  A
O1692      C1695   1.228       .  A
V1693      O1952   2.050       .  S
V1694      O1955   1.816   1_545  S
O1699      V1707   2.042       .  S
O1699      C1709   1.296       .  A
O1700      C1710   1.296       .  A
O1701      C1711   1.297       .  A
O1702      V1971   2.051   1_554  S
O1702      C1712   1.299       .  A
O1703      C1712   1.228       .  A
O1704      V1708   1.811       .  S
O1704      C1711   1.229       .  A
O1705      V1972   1.814   1_554  S
O1705      C1710   1.228       .  A
O1706      C1709   1.229       .  A
V1707      O1966   2.051       .  S
V1708      O1969   1.814       .  S
O1713      V1721   2.041       .  S
O1713      C1723   1.295       .  A
O1714      C1724   1.298       .  A
O1715      C1725   1.298       .  A
O1716      C1726   1.299       .  A
O1717      C1726   1.227       .  A
O1718      C1725   1.231       .  A
O1719      V1722   1.815   1_565  S
O1719      C1724   1.227       .  A
O1720      C1723   1.230       .  A
O1727      V1735   1.822       .  S
O1727      C1737   1.232       .  A
O1728      C1738   1.231       .  A
O1729      C1739   1.229       .  A
O1730      V1999   1.816   1_554  S
O1730      C1740   1.228       .  A
O1731      C1740   1.298       .  A
O1732      V1736   2.046       .  S
O1732      C1739   1.298       .  A
O1733      V2000   2.059   1_554  S
O1733      C1738   1.299       .  A
O1734      C1737   1.298       .  A
V1735      O1994   1.816       .  S
V1736      O1997   2.059       .  S
O1741      V1749   1.819       .  S
O1741      C1751   1.231       .  A
O1742      C1752   1.228       .  A
O1743      C1753   1.229       .  A
O1744      C1754   1.228       .  A
O1745      C1754   1.297       .  A
O1746      C1753   1.296       .  A
O1747      V1750   2.054   1_655  S
O1747      C1752   1.299       .  A
O1748      C1751   1.296       .  A
O1755      V1763   1.812       .  S
O1755      C1765   1.229       .  A
O1756      C1766   1.228       .  A
O1757      V2027   1.811   1_554  S
O1757      C1767   1.229       .  A
O1758      C1768   1.230       .  A
O1759      V1764   2.049   1_655  S
O1759      C1768   1.298       .  A
O1760      C1767   1.297       .  A
O1761      V2028   2.051   1_654  S
O1761      C1766   1.299       .  A
O1762      C1765   1.296       .  A
V1763      O2021   1.811       .  S
V1764      O2025   2.051   1_455  S
C1769      C1770   1.414       .  A
C1769      C1774   1.395       .  A
C1769      F1776   1.350       .  S
C1770      C1771   1.409       .  A
C1771      C1772   1.396       .  A
C1771      F1778   1.358       .  S
C1772      C1773   1.414       .  A
C1772      F1777   1.353       .  S
C1773      C1774   1.404       .  A
C1774      F1775   1.358       .  S
C1779      C1780   1.412       .  A
C1779      C1784   1.399       .  A
C1779      F1786   1.354       .  S
C1780      C1781   1.408       .  A
C1781      C1782   1.398       .  A
C1781      F1788   1.358       .  S
C1782      C1783   1.412       .  A
C1782      F1787   1.351       .  S
C1783      C1784   1.412       .  A
C1784      F1785   1.358       .  S
C1789      C1790   1.405       .  A
C1789      C1794   1.397       .  A
C1789      F1796   1.359       .  S
C1790      C1791   1.416       .  A
C1791      C1792   1.398       .  A
C1791      F1798   1.351       .  S
C1792      C1793   1.406       .  A
C1792      F1797   1.359       .  S
C1793      C1794   1.416       .  A
C1794      F1795   1.349       .  S
C1799      C1800   1.418       .  A
C1799      C1804   1.394       .  A
C1799      F1806   1.349       .  S
C1800      C1801   1.404       .  A
C1801      C1802   1.395       .  A
C1801      F1808   1.359       .  S
C1802      C1803   1.417       .  A
C1802      F1807   1.350       .  S
C1803      C1804   1.402       .  A
C1804      F1805   1.359       .  S
C1809      C1810   1.420       .  A
C1809      C1814   1.399       .  A
C1809      F1816   1.349       .  S
C1810      C1811   1.407       .  A
C1811      C1812   1.402       .  A
C1811      F1818   1.358       .  S
C1812      C1813   1.418       .  A
C1812      F1817   1.351       .  S
C1813      C1814   1.404       .  A
C1814      F1815   1.359       .  S
C1819      C1820   1.411       .  A
C1819      C1824   1.396       .  A
C1819      F1826   1.359       .  S
C1820      C1821   1.410       .  A
C1821      C1822   1.395       .  A
C1821      F1828   1.351       .  S
C1822      C1823   1.409       .  A
C1822      F1827   1.359       .  S
C1823      C1824   1.409       .  A
C1824      F1825   1.353       .  S
C1829      C1830   1.417       .  A
C1829      C1834   1.401       .  A
C1829      F1836   1.352       .  S
C1830      C1831   1.405       .  A
C1831      C1832   1.401       .  A
C1831      F1838   1.358       .  S
C1832      C1833   1.418       .  A
C1832      F1837   1.349       .  S
C1833      C1834   1.408       .  A
C1834      F1835   1.358       .  S
C1839      C1840   1.411       .  A
C1839      C1844   1.402       .  A
C1839      F1846   1.354       .  S
C1840      C1841   1.414       .  A
C1841      C1842   1.401       .  A
C1841      F1848   1.357       .  S
C1842      C1843   1.413       .  A
C1842      F1847   1.355       .  S
C1843      C1844   1.411       .  A
C1844      F1845   1.356       .  S
O1849      V1857   1.806       .  S
O1849      C1859   1.228       .  A
O1850      V1857   1.812       .  S
O1850      C1860   1.227       .  A
O1851      V1857   1.817       .  S
O1851      C1861   1.230       .  A
O1852      V1857   1.821       .  S
O1852      C1862   1.230       .  A
O1853      V1858   2.050       .  S
O1853      C1862   1.298       .  A
O1854      V1858   2.056       .  S
O1854      C1861   1.299       .  A
O1855      V1858   2.042       .  S
O1855      C1860   1.297       .  A
O1856      V1858   2.042       .  S
O1856      C1859   1.296       .  A
V1857      V1858   1.949       .  T
C1859      C1937   1.614       .  S
C1860      C1935   1.620       .  S
C1861      C1941   1.622       .  S
C1862      C1933   1.617       .  S
O1863      V1871   1.818       .  S
O1863      C1873   1.230       .  A
O1864      V1871   1.818       .  S
O1864      C1874   1.230       .  A
O1865      V1871   1.825       .  S
O1865      C1875   1.231       .  A
O1866      V1871   1.825       .  S
O1866      C1876   1.232       .  A
O1867      V1872   2.056       .  S
O1867      C1876   1.299       .  A
O1868      V1872   2.060       .  S
O1868      C1875   1.300       .  A
O1869      V1872   2.043       .  S
O1869      C1874   1.297       .  A
O1870      V1872   2.044       .  S
O1870      C1873   1.298       .  A
V1871      V1872   1.948       .  T
C1873      C1933   1.624       .  S
C1874      C1945   1.627       .  S
C1875      C1935   1.631       .  S
C1876      C1939   1.624       .  S
O1877      V1885   2.049       .  S
O1877      C1887   1.298       .  A
O1878      V1885   2.048       .  S
O1878      C1888   1.297       .  A
O1879      V1885   2.044       .  S
O1879      C1889   1.297       .  A
O1880      V1885   2.048       .  S
O1880      C1890   1.298       .  A
O1881      V1886   1.816       .  S
O1881      C1890   1.228       .  A
O1882      V1886   1.810       .  S
O1882      C1889   1.228       .  A
O1883      V1886   1.816       .  S
O1883      C1888   1.231       .  A
O1884      V1886   1.811       .  S
O1884      C1887   1.228       .  A
V1885      V1886   1.952       .  T
C1887      C1937   1.612       .  S
C1888      C1939   1.621       .  S
C1889      C1943   1.614       .  S
C1890      C1933   1.622       .  S
O1891      V1899   1.819       .  S
O1891      C1901   1.229       .  A
O1892      V1899   1.817       .  S
O1892      C1902   1.230       .  A
O1893      V1899   1.814       .  S
O1893      C1903   1.228       .  A
O1894      V1899   1.810       .  S
O1894      C1904   1.226       .  A
O1895      V1900   2.031       .  S
O1895      C1904   1.296       .  A
O1896      V1900   2.035       .  S
O1896      C1903   1.296       .  A
O1897      V1900   2.049       .  S
O1897      C1902   1.297       .  A
O1898      V1900   2.046       .  S
O1898      C1901   1.299       .  A
V1899      V1900   1.942       .  T
C1901      C1937   1.627       .  S
C1902      C1947   1.617       .  S
C1903      C1943   1.616       .  S
C1904      C1941   1.615       .  S
O1905      V1913   1.811       .  S
O1905      C1915   1.229       .  A
O1906      V1913   1.810       .  S
O1906      C1916   1.228       .  A
O1907      V1913   1.813       .  S
O1907      C1917   1.229       .  A
O1908      V1913   1.812       .  S
O1908      C1918   1.227       .  A
O1909      V1914   2.038       .  S
O1909      C1918   1.297       .  A
O1910      V1914   2.043       .  S
O1910      C1917   1.296       .  A
O1911      V1914   2.049       .  S
O1911      C1916   1.297       .  A
O1912      V1914   2.047       .  S
O1912      C1915   1.297       .  A
V1913      V1914   1.951       .  T
C1915      C1945   1.619       .  S
C1916      C1941   1.620       .  S
C1917      C1935   1.614       .  S
C1918      C1947   1.614       .  S
O1919      V1927   2.057       .  S
O1919      C1929   1.299       .  A
O1920      V1927   2.046       .  S
O1920      C1930   1.297       .  A
O1921      V1927   2.043       .  S
O1921      C1931   1.297       .  A
O1922      V1927   2.035       .  S
O1922      C1932   1.296       .  A
O1923      V1928   1.814       .  S
O1923      C1932   1.227       .  A
O1924      V1928   1.812       .  S
O1924      C1931   1.228       .  A
O1925      V1928   1.818       .  S
O1925      C1930   1.230       .  A
O1926      V1928   1.819       .  S
O1926      C1929   1.230       .  A
V1927      V1928   1.949       .  T
C1929      C1943   1.624       .  S
C1930      C1945   1.612       .  S
C1931      C1947   1.616       .  S
C1932      C1939   1.620       .  S
C1933      C2107   1.536       .  S
C1934      C2003   1.621       .  S
C1934      C2016   1.616       .  S
C1934      C2032   1.631       .  S
C1934      C2104   1.538       .  S
C1935      C2094   1.535       .  S
C1936      C1973   1.609       .  S
C1936      C2001   1.633       .  S
C1936      C2018   1.624       .  S
C1936      C2097   1.538       .  S
C1937      C2084   1.524       .  S
C1938      C1961   1.621       .  S
C1938      C2017   1.609       .  S
C1938      C2029   1.616       .  S
C1938      C2087   1.521       .  S
C1939      C2074   1.540       .  S
C1940      C1988   1.620       .  S
C1940      C2002   1.630       .  S
C1940      C2030   1.619       .  S
C1940      C2077   1.535       .  S
C1941      C2064   1.526       .  S
C1942      C1959   1.610       .  S
C1942      C1975   1.615       .  S
C1942      C2015   1.621       .  S
C1942      C2067   1.524       .  S
C1943      C2054   1.528       .  S
C1944      C1960   1.616       .  S
C1944      C1989   1.627       .  S
C1944      C2031   1.612       .  S
C1944      C2057   1.530       .  S
C1945      C2047   1.531       .  S
C1946      C1976   1.622       .  S
C1946      C1990   1.616       .  S
C1946      C2004   1.623       .  S
C1946      C2044   1.527       .  S
C1947      C2037   1.523       .  S
C1948      C1962   1.613       .  S
C1948      C1974   1.623       .  S
C1948      C1987   1.616       .  S
C1948      C2034   1.528       .  S
O1949      V1957   2.027       .  S
O1949      C1959   1.295       .  A
O1950      C1960   1.296       .  A
O1951      C1961   1.298       .  A
O1952      C1962   1.298       .  A
O1953      C1962   1.229       .  A
O1954      V1958   1.821   1_565  S
O1954      C1961   1.228       .  A
O1955      C1960   1.228       .  A
O1956      C1959   1.228       .  A
O1963      V1971   2.042       .  S
O1963      C1973   1.296       .  A
O1964      C1974   1.296       .  A
O1965      C1975   1.297       .  A
O1966      C1976   1.299       .  A
O1967      C1976   1.228       .  A
O1968      V1972   1.811       .  S
O1968      C1975   1.229       .  A
O1969      C1974   1.228       .  A
O1970      C1973   1.229       .  A
O1977      V1985   2.041       .  S
O1977      C1987   1.295       .  A
O1978      C1988   1.298       .  A
O1979      C1989   1.298       .  A
O1980      C1990   1.299       .  A
O1981      C1990   1.227       .  A
O1982      C1989   1.231       .  A
O1983      V1986   1.815   1_565  S
O1983      C1988   1.227       .  A
O1984      C1987   1.230       .  A
O1991      V1999   1.822       .  S
O1991      C2001   1.232       .  A
O1992      C2002   1.231       .  A
O1993      C2003   1.229       .  A
O1994      C2004   1.228       .  A
O1995      C2004   1.298       .  A
O1996      V2000   2.046       .  S
O1996      C2003   1.298       .  A
O1997      C2002   1.299       .  A
O1998      C2001   1.298       .  A
O2005      V2013   1.819       .  S
O2005      C2015   1.231       .  A
O2006      C2016   1.228       .  A
O2007      C2017   1.229       .  A
O2008      C2018   1.228       .  A
O2009      C2018   1.297       .  A
O2010      C2017   1.296       .  A
O2011      V2014   2.054   1_655  S
O2011      C2016   1.299       .  A
O2012      C2015   1.296       .  A
O2019      V2027   1.812       .  S
O2019      C2029   1.229       .  A
O2020      C2030   1.228       .  A
O2021      C2031   1.229       .  A
O2022      C2032   1.230       .  A
O2023      V2028   2.049   1_655  S
O2023      C2032   1.298       .  A
O2024      C2031   1.297       .  A
O2025      C2030   1.299       .  A
O2026      C2029   1.296       .  A
C2033      C2034   1.414       .  A
C2033      C2038   1.395       .  A
C2033      F2040   1.350       .  S
C2034      C2035   1.409       .  A
C2035      C2036   1.396       .  A
C2035      F2042   1.358       .  S
C2036      C2037   1.414       .  A
C2036      F2041   1.353       .  S
C2037      C2038   1.404       .  A
C2038      F2039   1.358       .  S
C2043      C2044   1.412       .  A
C2043      C2048   1.399       .  A
C2043      F2050   1.354       .  S
C2044      C2045   1.408       .  A
C2045      C2046   1.398       .  A
C2045      F2052   1.358       .  S
C2046      C2047   1.412       .  A
C2046      F2051   1.351       .  S
C2047      C2048   1.412       .  A
C2048      F2049   1.358       .  S
C2053      C2054   1.405       .  A
C2053      C2058   1.397       .  A
C2053      F2060   1.359       .  S
C2054      C2055   1.416       .  A
C2055      C2056   1.398       .  A
C2055      F2062   1.351       .  S
C2056      C2057   1.406       .  A
C2056      F2061   1.359       .  S
C2057      C2058   1.416       .  A
C2058      F2059   1.349       .  S
C2063      C2064   1.418       .  A
C2063      C2068   1.394       .  A
C2063      F2070   1.349       .  S
C2064      C2065   1.404       .  A
C2065      C2066   1.395       .  A
C2065      F2072   1.359       .  S
C2066      C2067   1.417       .  A
C2066      F2071   1.350       .  S
C2067      C2068   1.402       .  A
C2068      F2069   1.359       .  S
C2073      C2074   1.420       .  A
C2073      C2078   1.399       .  A
C2073      F2080   1.349       .  S
C2074      C2075   1.407       .  A
C2075      C2076   1.402       .  A
C2075      F2082   1.358       .  S
C2076      C2077   1.418       .  A
C2076      F2081   1.351       .  S
C2077      C2078   1.404       .  A
C2078      F2079   1.359       .  S
C2083      C2084   1.411       .  A
C2083      C2088   1.396       .  A
C2083      F2090   1.359       .  S
C2084      C2085   1.410       .  A
C2085      C2086   1.395       .  A
C2085      F2092   1.351       .  S
C2086      C2087   1.409       .  A
C2086      F2091   1.359       .  S
C2087      C2088   1.409       .  A
C2088      F2089   1.353       .  S
C2093      C2094   1.417       .  A
C2093      C2098   1.401       .  A
C2093      F2100   1.352       .  S
C2094      C2095   1.405       .  A
C2095      C2096   1.401       .  A
C2095      F2102   1.358       .  S
C2096      C2097   1.418       .  A
C2096      F2101   1.349       .  S
C2097      C2098   1.408       .  A
C2098      F2099   1.358       .  S
C2103      C2104   1.411       .  A
C2103      C2108   1.402       .  A
C2103      F2110   1.354       .  S
C2104      C2105   1.414       .  A
C2105      C2106   1.401       .  A
C2105      F2112   1.357       .  S
C2106      C2107   1.413       .  A
C2106      F2111   1.355       .  S
C2107      C2108   1.411       .  A
C2108      F2109   1.356       .  S
