geometry optimzed in LAMMPS
_audit_creation_date              2020-12-01 
_audit_creation_method            'lammps2cif' 
_symmetry_space_group_name_H-M    'P1' 
_symmetry_Int_Tables_number       1 
_symmetry_cell_setting            triclinic 
loop_ 
_symmetry_equiv_pos_as_xyz 
  x,y,z 
_cell_length_a                    29.14396641 
_cell_length_b                    28.609731881993504 
_cell_length_c                    29.34862073146158 
_cell_angle_alpha                 88.61469141716529 
_cell_angle_beta                  90.61128717938145 
_cell_angle_gamma                 89.99319153136868 
loop_ 
_atom_site_label 
_atom_site_type_symbol 
_atom_site_fract_x 
_atom_site_fract_y 
_atom_site_fract_z 
_atom_site_charge 
C1          C  0.35870611  0.59240547  0.66514403     0.86400
C2          C  0.39128551  0.63212406  0.67474627    -0.53900
C3          C  0.40310827  0.65877622  0.63767900     0.09300
C4          C  0.38326632  0.63970980  0.59243018     0.20200
C5          C  0.31842354  0.61290547  0.63765922    -0.54600
C6          C  0.33111794  0.63949032  0.60157062     0.09400
C7          C  0.38406243  0.56261697  0.62974540    -0.54100
C8          C  0.39687526  0.58672910  0.59100720     0.10000
H9          H  0.40257354  0.63983934  0.70918515     0.14500
H10         H  0.39208016  0.66032502  0.56136732     0.00200
H11         H  0.28273208  0.60559857  0.64503222     0.14800
H12         H  0.38970994  0.52524158  0.63374555     0.14600
O13         O  0.39549560  0.54453032  0.51957627    -0.80300
O14         O  0.57882897  0.57920835  0.43262386    -0.80300
O15         O  0.54923539  0.52517117  0.57653318    -0.80300
O16         O  0.46289900  0.53599457  0.38939719    -0.80200
O17         O  0.56923785  0.57581941  0.52373617    -0.80400
O18         O  0.44798005  0.57894652  0.44859637    -0.80300
O19         O  0.55741790  0.53139962  0.37911900    -0.80300
O20         O  0.46259446  0.55175039  0.55448312    -0.80300
C21         C  0.41902159  0.56103769  0.55244337     1.09400
C22         C  0.57865064  0.56824056  0.39132637     1.09300
C23         C  0.56870712  0.56347964  0.56489171     1.09500
C24         C  0.44419083  0.57245100  0.40610001     1.09300
O25         O  0.41048632  0.48374039  0.43956961    -0.80300
O26         O  0.60416414  0.47755147  0.52695949    -0.80300
O27         O  0.47289499  0.46517595  0.59390517    -0.80300
O28         O  0.55608154  0.43820406  0.42213031    -0.80200
O29         O  0.61432203  0.48409968  0.43264795    -0.80300
O30         O  0.43549602  0.45915083  0.52855059    -0.80300
O31         O  0.46891870  0.43971522  0.43203453    -0.80200
O32         O  0.54205565  0.43456687  0.53719973    -0.80300
Co33       Co  0.44819832  0.52058899  0.48847705     1.51500
Co34       Co  0.58626543  0.52843190  0.47927402     1.51700
Co35       Co  0.50135621  0.49156892  0.53973901     1.51600
Co36       Co  0.51118060  0.48733408  0.40959663     1.51500
O37         O  0.51728115  0.50965923  0.47408706    -1.42200
C38         C  0.42765343  0.44644753  0.42331173     1.09400
C39         C  0.58536182  0.43967718  0.54201864     1.09500
C40         C  0.43944955  0.44797943  0.57173503     1.09400
C41         C  0.59766516  0.44672889  0.41640821     1.09400
C42         C  0.61494621  0.40419910  0.57135445     0.86400
C43         C  0.59012866  0.37834970  0.61059724    -0.53900
C44         C  0.61725755  0.34878990  0.63869620     0.09300
C45         C  0.66732303  0.34953329  0.62371741     0.20200
C46         C  0.65381809  0.42925181  0.59629052    -0.54600
C47         C  0.68002041  0.40114122  0.62455672     0.09400
C48         C  0.63921645  0.36512170  0.54619500    -0.54100
C49         C  0.66768786  0.33731909  0.57338241     0.10000
H50         H  0.55492758  0.38762361  0.61702790     0.14500
H51         H  0.69105174  0.32790212  0.64400775     0.00200
H52         H  0.65658452  0.46714692  0.59654081     0.14800
H53         H  0.63704303  0.36201366  0.50952899     0.14600
C54         C  0.40389298  0.41109870  0.39134387     0.86400
C55         C  0.43630954  0.37038434  0.37670291    -0.53900
C56         C  0.41678353  0.33790576  0.34820750     0.09300
C57         C  0.36698102  0.34982597  0.33707316     0.20200
C58         C  0.38720040  0.43135545  0.34622149    -0.54600
C59         C  0.36845034  0.39994401  0.31629994     0.09400
C60         C  0.36161182  0.38712674  0.41045219    -0.54100
C61         C  0.34389868  0.35255392  0.38339317     0.10000
H62         H  0.47198758  0.36868853  0.38717775     0.14500
H63         H  0.35061059  0.32304251  0.31735245     0.00200
H64         H  0.39082993  0.46782612  0.33890079     0.14800
H65         H  0.35145538  0.39170623  0.44556824     0.14600
C66         C  0.65921540  0.59981470  0.29061781     0.86400
C67         C  0.69805238  0.60747038  0.32564685    -0.53900
C68         C  0.68426065  0.63076009  0.36329821     0.09300
C69         C  0.63257617  0.64184163  0.36413945     0.20200
C70         C  0.62285963  0.57292710  0.31940895    -0.54600
C71         C  0.60886201  0.59403617  0.35785408     0.09400
C72         C  0.63894281  0.64796800  0.28134902    -0.54100
C73         C  0.62491593  0.67022218  0.31912268     0.10000
H74         H  0.73343420  0.59705417  0.32074670     0.14500
H75         H  0.62149413  0.66047528  0.39491644     0.00200
H76         H  0.61039382  0.53857144  0.31290257     0.14800
H77         H  0.63239832  0.66182411  0.24705497     0.14600
C78         C  0.35284363  0.60251249  0.31357538     0.86400
C79         C  0.38942541  0.57637892  0.34220552    -0.53900
C80         C  0.41079600  0.60043447  0.37546183     0.09300
C81         C  0.39183498  0.65201169  0.37657765     0.20200
C82         C  0.31950775  0.61861767  0.34943367    -0.54600
C83         C  0.33908018  0.64738307  0.37997951     0.09400
C84         C  0.37583700  0.64620360  0.29495878    -0.54100
C85         C  0.39557359  0.67286906  0.32736148     0.10000
H86         H  0.39585517  0.53992542  0.33892746     0.14500
H87         H  0.40786962  0.67388973  0.40312246     0.00200
H88         H  0.28348908  0.60925764  0.35076585     0.14800
H89         H  0.37873690  0.65406109  0.25866395     0.14600
C90         C  0.62507426  0.41366012  0.38683403     0.86400
C91         C  0.66491975  0.38914391  0.41088727    -0.53900
C92         C  0.69003116  0.35968342  0.38403315     0.09300
C93         C  0.67037879  0.35699514  0.33547785     0.20200
C94         C  0.64603057  0.43715879  0.34488791    -0.54600
C95         C  0.66822155  0.40720436  0.31673937     0.09400
C96         C  0.59639481  0.37358020  0.36705226    -0.54100
C97         C  0.62035078  0.34280745  0.34086408     0.10000
H98         H  0.67096853  0.39490060  0.44654835     0.14500
H99         H  0.68936169  0.33408506  0.31413059     0.00200
H100        H  0.64226213  0.47402295  0.33745250     0.14800
H101        H  0.55973612  0.37095547  0.37224142     0.14600
C102        C  0.34964616  0.34937959  0.59371416     0.86400
C103        C  0.38801703  0.31934840  0.61441157    -0.53900
C104        C  0.41710855  0.34269667  0.64182023     0.09300
C105        C  0.40768210  0.39484249  0.64394903     0.20200
C106        C  0.32722064  0.37311893  0.63430105    -0.54600
C107        C  0.35791699  0.39414273  0.66303391     0.09400
C108        C  0.37429770  0.39025768  0.56836648    -0.54100
C109        C  0.40641358  0.41313227  0.59356372     0.10000
H110        H  0.38939922  0.28162608  0.61087680     0.14500
H111        H  0.43397466  0.41288695  0.66397949     0.00200
H112        H  0.29066071  0.37348962  0.64014650     0.14800
H113        H  0.36858356  0.39852866  0.53245339     0.14600
C114        C  0.64636003  0.59377662  0.66481108     0.86400
C115        C  0.62236662  0.63953546  0.67419609    -0.53900
C116        C  0.60969589  0.66486808  0.63614544     0.09300
C117        C  0.61877586  0.63886943  0.59132007     0.20200
C118        C  0.61130397  0.56688697  0.63648913    -0.54600
C119        C  0.59665333  0.58957365  0.59815291     0.09400
C120        C  0.68499551  0.60582300  0.63088676    -0.54100
C121        C  0.67072288  0.63070034  0.59336033     0.10000
H122        H  0.61618454  0.65093609  0.70862684     0.14500
H123        H  0.60879331  0.65739218  0.55938188     0.00200
H124        H  0.60050765  0.53147200  0.64323082     0.14800
H125        H  0.72085496  0.59703520  0.63682463     0.14600
N126        N  0.20439406  0.26961111  0.99110317    -0.36700
N127        N  0.26213361  0.23498321  0.92142168    -0.57300
N128        N  0.32005138  0.19019621  0.99000348    -0.36700
N129        N  0.26130680  0.22614368  0.06012163    -0.57300
C130        C  0.17775705  0.27822676  0.95452881     0.26900
C131        C  0.17620412  0.26818078  0.02697428     0.26900
C132        C  0.34477809  0.18040276  0.95302656     0.26900
C133        C  0.34890143  0.18491507  0.02590125     0.26900
C134        C  0.23390645  0.26254040  0.89515528     0.35500
C135        C  0.29211943  0.21375552  0.89342939     0.35500
C136        C  0.23245251  0.25050537  0.08664214     0.35500
C137        C  0.29717462  0.21209055  0.08687150     0.35500
C138        C  0.13204421  0.28105679  0.96678097    -0.22000
C139        C  0.13108557  0.27403149  0.01292425    -0.22000
C140        C  0.38940324  0.16840218  0.96556987    -0.22000
C141        C  0.39207576  0.17174755  0.01155166    -0.22000
C142        C  0.24632783  0.25889761  0.85016764    -0.23100
C143        C  0.28268734  0.22797214  0.84885757    -0.23100
C144        C  0.24985876  0.25074346  0.13056324    -0.23100
C145        C  0.28994858  0.22574116  0.13092316    -0.23100
C146        C  0.19435891  0.28670972  0.91109442    -0.18400
C147        C  0.19220550  0.27480430  0.07073378    -0.18400
C148        C  0.33799061  0.19056484  0.07161362    -0.18400
C149        C  0.32942696  0.18408921  0.90790375    -0.18400
H150        H  0.10258083  0.28801371  0.94491693     0.14500
H151        H  0.10064240  0.27388059  0.03344230     0.14500
H152        H  0.41790691  0.16037312  0.94378656     0.14500
H153        H  0.42279040  0.16634686  0.03203047     0.14500
H154        H  0.22958386  0.27517418  0.82132762     0.12800
H155        H  0.30072190  0.21816465  0.81863911     0.12800
H156        H  0.23635581  0.26848392  0.15909301     0.12800
H157        H  0.31243897  0.22104195  0.15977520     0.12800
H158        H  0.24002085  0.27321553  0.99224785     0.26000
H159        H  0.28489335  0.19582720  0.99064676     0.26000
N160        N  0.19157399  0.00303657  0.25881180    -0.36700
N161        N  0.23388759  0.07845572  0.20717360    -0.57300
N162        N  0.28952217  0.00399470  0.17236424    -0.36700
N163        N  0.24108120  0.92753885  0.21825756    -0.57300
C164        C  0.16307852  0.03979644  0.26041835     0.26900
C165        C  0.16583641  0.96441234  0.26361010     0.26900
C166        C  0.29350914  0.04071563  0.14349393     0.26900
C167        C  0.29877958  0.96610459  0.14835822     0.26900
C168        C  0.21680488  0.10140020  0.24299432     0.35500
C169        C  0.27188047  0.10187482  0.19335118     0.35500
C170        C  0.22671050  0.90797341  0.25823821     0.35500
C171        C  0.28228065  0.90883414  0.20811213     0.35500
C172        C  0.11809052  0.02477549  0.26334950    -0.22000
C173        C  0.11972062  0.97657876  0.26430286    -0.22000
C174        C  0.30176147  0.02577092  0.09979201    -0.22000
C175        C  0.30587271  0.97813229  0.10299212    -0.22000
C176        C  0.24255066  0.14157028  0.24955586    -0.23100
C177        C  0.27690163  0.14208046  0.21808037    -0.23100
C178        C  0.25964306  0.87652443  0.27419864    -0.23100
C179        C  0.29477106  0.87717240  0.24233424    -0.23100
C180        C  0.17975484  0.08397402  0.27012152    -0.18400
C181        C  0.18521608  0.92212180  0.27951938    -0.18400
C182        C  0.30801913  0.92315759  0.16904538    -0.18400
C183        C  0.30218810  0.08477993  0.16008903    -0.18400
H184        H  0.08761871  0.04592595  0.26633265     0.14500
H185        H  0.09086809  0.95333159  0.26966508     0.14500
H186        H  0.30451552  0.04632697  0.06870709     0.14500
H187        H  0.31453625  0.95525584  0.07552563     0.14500
H188        H  0.23814676  0.16787887  0.27470746     0.12800
H189        H  0.30315049  0.16846853  0.21559385     0.12800
H190        H  0.26045064  0.85835214  0.30688491     0.12800
H191        H  0.32782715  0.86108690  0.24678401     0.12800
H192        H  0.22716764  0.00458749  0.26335604     0.26000
H193        H  0.28900022  0.00538490  0.20791633     0.26000
N194        N  0.01946612  0.30991869  0.19965025    -0.36700
N195        N  0.94782527  0.26644902  0.25440373    -0.57300
N196        N  0.01549280  0.21555666  0.30270458    -0.36700
N197        N  0.08852747  0.26285107  0.25241354    -0.57300
C198        C  0.98337417  0.33745927  0.18999651     0.26900
C199        C  0.05666650  0.33484156  0.18748369     0.26900
C200        C  0.97935734  0.21021846  0.33051796     0.26900
C201        C  0.05282068  0.20640788  0.32847184     0.26900
C202        C  0.92236604  0.28647747  0.22074589     0.35500
C203        C  0.92036131  0.23519094  0.27603085     0.35500
C204        C  0.11231614  0.27677840  0.21478940     0.35500
C205        C  0.10962723  0.22406675  0.27011524     0.35500
C206        C  0.99755069  0.38073096  0.17304414    -0.22000
C207        C  0.04434294  0.37898464  0.17121240    -0.22000
C208        C  0.99450811  0.19983179  0.37469262    -0.22000
C209        C  0.04117396  0.19709840  0.37319164    -0.22000
C210        C  0.87782826  0.26973514  0.22246895    -0.23100
C211        C  0.87651417  0.23720161  0.25756564    -0.23100
C212        C  0.14833876  0.24656283  0.20858418    -0.23100
C213        C  0.14657277  0.21342893  0.24357650    -0.23100
C214        C  0.93844044  0.32168647  0.19050540    -0.18400
C215        C  0.10029423  0.31579913  0.18590086    -0.18400
C216        C  0.09543752  0.19890577  0.31008759    -0.18400
C217        C  0.93477858  0.20636779  0.31326294    -0.18400
H218        H  0.97637668  0.41006574  0.16228502     0.14500
H219        H  0.06653252  0.40650953  0.15840284     0.14500
H220        H  0.97581256  0.19494155  0.40564029     0.14500
H221        H  0.06379379  0.18778804  0.40146961     0.14500
H222        H  0.84894523  0.28084342  0.20164780     0.12800
H223        H  0.84644402  0.21858834  0.26912472     0.12800
H224        H  0.17019752  0.24573060  0.17951578     0.12800
H225        H  0.16703722  0.18270386  0.24701712     0.12800
H226        H  0.01821762  0.27461193  0.20673988     0.26000
H227        H  0.01460792  0.21641808  0.26799738     0.26000
N228        N  0.51662087  0.19367946  0.22382555    -0.36700
N229        N  0.44104868  0.22822373  0.27980334    -0.57300
N230        N  0.51958540  0.28011070  0.31562802    -0.36700
N231        N  0.59120573  0.24190097  0.26310245    -0.57300
C232        C  0.48246461  0.16255368  0.22757687     0.26900
C233        C  0.55490411  0.16935069  0.21646378     0.26900
C234        C  0.48471959  0.28313214  0.34490459     0.26900
C235        C  0.55851217  0.28339760  0.34011660     0.26900
C236        C  0.42134333  0.21540646  0.23991586     0.35500
C237        C  0.42495776  0.27092187  0.29030344     0.35500
C238        C  0.61092957  0.22975580  0.22380080     0.35500
C239        C  0.61209623  0.28042275  0.27855905     0.35500
C240        C  0.49989873  0.11745798  0.22875448    -0.22000
C241        C  0.54613231  0.12175479  0.22004098    -0.22000
C242        C  0.50158356  0.28353137  0.38920856    -0.22000
C243        C  0.54866469  0.28307787  0.38619862    -0.22000
C244        C  0.39101849  0.25026971  0.22556342    -0.23100
C245        C  0.39553016  0.28610399  0.25597212    -0.23100
C246        C  0.64741250  0.25988017  0.21531111    -0.23100
C247        C  0.64628031  0.29340870  0.24834741    -0.23100
C248        C  0.43791998  0.17619972  0.21557380    -0.18400
C249        C  0.59386863  0.19132130  0.19867593    -0.18400
C250        C  0.59870195  0.30062480  0.32009538    -0.18400
C251        C  0.44085431  0.29561895  0.32909258    -0.18400
H252        H  0.48044303  0.08521931  0.22907605     0.14500
H253        H  0.56947904  0.09329492  0.21383387     0.14500
H254        H  0.48291158  0.28744031  0.42021307     0.14500
H255        H  0.57266395  0.28786581  0.41411212     0.14500
H256        H  0.37078468  0.25330341  0.19506221     0.12800
H257        H  0.38286378  0.32099778  0.25026162     0.12800
H258        H  0.67312103  0.25929347  0.18936001     0.12800
H259        H  0.66754421  0.32400553  0.24775682     0.12800
H260        H  0.51257756  0.22953789  0.21711862     0.26000
H261        H  0.51669542  0.28582968  0.28038202     0.26000
N262        N  0.24447050  0.18933740  0.48050182    -0.36700
N263        N  0.29089118  0.23421728  0.40647648    -0.57300
N264        N  0.31211630  0.30235579  0.48401635    -0.36700
N265        N  0.27242996  0.25057444  0.55175153    -0.57300
C266        C  0.24964545  0.15892919  0.44678910     0.26900
C267        C  0.24199094  0.16382203  0.51924466     0.26900
C268        C  0.34079262  0.29896920  0.44922071     0.26900
C269        C  0.33865424  0.30888672  0.52075862     0.26900
C270        C  0.25861182  0.21161019  0.38291566     0.35500
C271        C  0.29765511  0.27584268  0.38564525     0.35500
C272        C  0.24341173  0.22361825  0.57596035     0.35500
C273        C  0.28618073  0.28634115  0.57797623     0.35500
C274        C  0.25459863  0.11386161  0.46442655    -0.22000
C275        C  0.24890050  0.11690935  0.51078408    -0.22000
C276        C  0.38578293  0.30079293  0.46369987    -0.22000
C277        C  0.38478975  0.30695744  0.50953086    -0.22000
C278        C  0.24736190  0.23795727  0.34377305    -0.23100
C279        C  0.27094532  0.27975695  0.34685717    -0.23100
C280        C  0.23936387  0.24170949  0.61900068    -0.23100
C281        C  0.26593674  0.28141828  0.62005719    -0.23100
C282        C  0.23722454  0.17129123  0.40205012    -0.18400
C283        C  0.22401296  0.18184825  0.55895050    -0.18400
C284        C  0.32042724  0.31851559  0.56317011    -0.18400
C285        C  0.32593722  0.30916296  0.40548361    -0.18400
H286        H  0.25639184  0.08197906  0.44540420     0.14500
H287        H  0.24639038  0.08783449  0.53490189     0.14500
H288        H  0.41550194  0.30211825  0.44263602     0.14500
H289        H  0.41466472  0.31157354  0.53104078     0.14500
H290        H  0.22227137  0.23067084  0.31763536     0.12800
H291        H  0.26496293  0.31090160  0.32642176     0.12800
H292        H  0.22072276  0.22764864  0.64743164     0.12800
H293        H  0.26935169  0.30270170  0.64894544     0.12800
H294        H  0.23428411  0.22423494  0.47633094     0.26000
H295        H  0.27654199  0.30691782  0.48165644     0.26000
N296        N  0.33271245  0.49468555  0.25692837    -0.36700
N297        N  0.27697308  0.56764285  0.21592629    -0.57300
N298        N  0.24396943  0.49255246  0.16855299    -0.36700
N299        N  0.30432030  0.41795563  0.20416311    -0.57300
C300        C  0.35450880  0.53574295  0.25916702     0.26900
C301        C  0.36507674  0.46136270  0.25568442     0.26900
C302        C  0.23252772  0.53109575  0.14439180     0.26900
C303        C  0.24981470  0.45878237  0.13865873     0.26900
C304        C  0.29082729  0.58913216  0.25325926     0.35500
C305        C  0.23632851  0.58576897  0.20346750     0.35500
C306        C  0.32105468  0.39415637  0.24065431     0.35500
C307        C  0.26920676  0.39376089  0.18719111     0.35500
C308        C  0.40154086  0.52898748  0.25513944    -0.22000
C309        C  0.40832692  0.48125409  0.25385862    -0.22000
C310        C  0.23473537  0.52327551  0.09814428    -0.22000
C311        C  0.24736255  0.47703664  0.09441716    -0.22000
C312        C  0.25905483  0.62355079  0.26359643    -0.23100
C313        C  0.22370264  0.62064015  0.23229440    -0.23100
C314        C  0.29811294  0.35176928  0.24447032    -0.23100
C315        C  0.26503054  0.35174959  0.21078074    -0.23100
C316        C  0.33201102  0.57551338  0.27519688    -0.18400
C317        C  0.35458730  0.41520615  0.26860281    -0.18400
C318        C  0.24117577  0.41280467  0.15240637    -0.18400
C319        C  0.21330976  0.56934151  0.16555430    -0.18400
H320        H  0.42814099  0.55516813  0.25785806     0.14500
H321        H  0.44094662  0.46319676  0.25588310     0.14500
H322        H  0.22525996  0.54716422  0.07050577     0.14500
H323        H  0.24754438  0.45751673  0.06327667     0.14500
H324        H  0.25903104  0.64748844  0.29080565     0.12800
H325        H  0.19257346  0.64120553  0.23158012     0.12800
H326        H  0.30375366  0.32238154  0.26653700     0.12800
H327        H  0.24015194  0.32453746  0.20618985     0.12800
H328        H  0.29812139  0.48901799  0.26444605     0.26000
H329        H  0.23860597  0.48726348  0.20348918     0.26000
N330        N  0.32434368  0.77984007  0.98470357    -0.36700
N331        N  0.27060107  0.72778737  0.05693652    -0.57300
N332        N  0.20141780  0.65339034  0.98548365    -0.36700
N333        N  0.27052208  0.73097303  0.91554952    -0.57300
C334        C  0.31476561  0.80577274  0.02071799     0.26900
C335        C  0.31711180  0.80808172  0.94820081     0.26900
C336        C  0.22966251  0.64814118  0.02162044     0.26900
C337        C  0.22806430  0.65075754  0.94891557     0.26900
C338        C  0.29873897  0.75384081  0.08323389     0.35500
C339        C  0.24715640  0.69710964  0.08404785     0.35500
C340        C  0.29466769  0.75909392  0.88767076     0.35500
C341        C  0.24227162  0.70603019  0.88906551     0.35500
C342        C  0.29859544  0.84956529  0.00712641    -0.22000
C343        C  0.29933618  0.85067797  0.96053644    -0.22000
C344        C  0.27415791  0.63945572  0.00803175    -0.22000
C345        C  0.27313810  0.64103952  0.96144167    -0.22000
C346        C  0.29353001  0.73942748  0.12815206    -0.23100
C347        C  0.26131599  0.70351170  0.12886200    -0.23100
C348        C  0.28120379  0.75288796  0.84299658    -0.23100
C349        C  0.24730568  0.71926830  0.84398635    -0.23100
C350        C  0.32532435  0.79200810  0.06522968    -0.18400
C351        C  0.32336824  0.79406888  0.90411891    -0.18400
C352        C  0.21459387  0.67054098  0.90757465    -0.18400
C353        C  0.21777272  0.66206773  0.06485492    -0.18400
H354        H  0.28757480  0.87758686  0.02856421     0.14500
H355        H  0.28654741  0.87874395  0.93857714     0.14500
H356        H  0.30450520  0.63667146  0.02952297     0.14500
H357        H  0.30262641  0.64016057  0.93934935     0.14500
H358        H  0.31130157  0.75245154  0.15738993     0.12800
H359        H  0.25412711  0.68237448  0.15873496     0.12800
H360        H  0.29193889  0.77275185  0.81359301     0.12800
H361        H  0.22953444  0.70562095  0.81517819     0.12800
H362        H  0.33824505  0.74613595  0.98509105     0.26000
H363        H  0.16815997  0.66712934  0.98560465     0.26000
N364        N  0.83321328  0.28428164  0.97942809    -0.36700
N365        N  0.76214237  0.25225956  0.91383875    -0.57300
N366        N  0.71155023  0.21106500  0.98596982    -0.36700
N367        N  0.77467913  0.24724367  0.05105065    -0.57300
C368        C  0.83648995  0.31319913  0.94275439     0.26900
C369        C  0.84478071  0.31011395  0.01555528     0.26900
C370        C  0.68194644  0.21096790  0.95079351     0.26900
C371        C  0.68612657  0.21145058  0.02356129     0.26900
C372        C  0.79708384  0.26570650  0.88663810     0.35500
C373        C  0.73685612  0.22096340  0.89038803     0.35500
C374        C  0.81355982  0.25775010  0.07443393     0.35500
C375        C  0.74918058  0.21836681  0.07811457     0.35500
C376        C  0.84937905  0.35745318  0.95533187    -0.22000
C377        C  0.85451704  0.35565589  0.00143912    -0.22000
C378        C  0.63724836  0.21368124  0.96612354    -0.22000
C379        C  0.63989678  0.21338077  0.01258134    -0.22000
C380        C  0.79372443  0.24397527  0.84536221    -0.23100
C381        C  0.75578830  0.21543510  0.84769232    -0.23100
C382        C  0.81293668  0.23507276  0.11652899    -0.23100
C383        C  0.77231701  0.21010811  0.11874266    -0.23100
C384        C  0.82949433  0.30018354  0.89804908    -0.18400
C385        C  0.84442257  0.29404231  0.06094417    -0.18400
C386        C  0.70408965  0.20292711  0.06663393    -0.18400
C387        C  0.69613816  0.19951481  0.90763911    -0.18400
H388        H  0.85216815  0.38838463  0.93373297     0.14500
H389        H  0.86129373  0.38552061  0.02202360     0.14500
H390        H  0.60581002  0.21721112  0.94705878     0.14500
H391        H  0.61115199  0.21380095  0.03561883     0.14500
H392        H  0.81674492  0.24771749  0.81713623     0.12800
H393        H  0.74381862  0.19353729  0.82081186     0.12800
H394        H  0.83928303  0.23600577  0.14245190     0.12800
H395        H  0.76105092  0.18874061  0.14685859     0.12800
H396        H  0.82590337  0.24854815  0.97944932     0.26000
H397        H  0.74646797  0.20303080  0.98453687     0.26000
N398        N  0.00359255  0.27301294  0.77576435    -0.36700
N399        N  0.93358738  0.21793549  0.72933581    -0.57300
N400        N  0.00561372  0.19107760  0.67035935    -0.36700
N401        N  0.07362190  0.25012755  0.71583129    -0.57300
C402        C  0.96962127  0.26216205  0.80434762     0.26900
C403        C  0.04102967  0.27776138  0.80167486     0.26900
C404        C  0.96943816  0.17870048  0.64447505     0.26900
C405        C  0.04201213  0.18936271  0.64289758     0.26900
C406        C  0.90770737  0.24727928  0.75367930     0.35500
C407        C  0.90704931  0.20134502  0.69561297     0.35500
C408        C  0.10006900  0.27229711  0.74689256     0.35500
C409        C  0.10128794  0.22074317  0.69366330     0.35500
C410        C  0.98540197  0.25736220  0.84861621    -0.22000
C411        C  0.03121736  0.26736194  0.84711017    -0.22000
C412        C  0.98301548  0.17066284  0.60011573    -0.22000
C413        C  0.02904687  0.17786580  0.59911496    -0.22000
C414        C  0.86368038  0.24910268  0.73569191    -0.23100
C415        C  0.86298261  0.21929080  0.69943448    -0.23100
C416        C  0.14482830  0.25700442  0.74406048    -0.23100
C417        C  0.14525698  0.22419580  0.71070166    -0.23100
C418        C  0.92525672  0.27132838  0.79175479    -0.18400
C419        C  0.08201283  0.29563351  0.78463124    -0.18400
C420        C  0.08705821  0.19169771  0.65781171    -0.18400
C421        C  0.92416422  0.17531748  0.65886873    -0.18400
H422        H  0.96566469  0.24961558  0.87886047     0.14500
H423        H  0.05384088  0.26848670  0.87643440     0.14500
H424        H  0.96186465  0.16143925  0.57117403     0.14500
H425        H  0.05073085  0.17470480  0.56968601     0.14500
H426        H  0.83529259  0.27027823  0.74647372     0.12800
H427        H  0.83418824  0.21527389  0.67657962     0.12800
H428        H  0.17262521  0.26351806  0.76738781     0.12800
H429        H  0.17366028  0.20300268  0.70205209     0.12800
H430        H  0.99964176  0.28424159  0.74176714     0.26000
H431        H  0.00700496  0.19437343  0.70560038     0.26000
N432        N  0.68690687  0.49799270  0.23893216    -0.36700
N433        N  0.73432495  0.42066506  0.20791069    -0.57300
N434        N  0.77426898  0.49502099  0.15416255    -0.36700
N435        N  0.72563445  0.57453294  0.18180620    -0.57300
C436        C  0.66194152  0.45997237  0.24881199     0.26900
C437        C  0.65785214  0.53385473  0.23412858     0.26900
C438        C  0.78117263  0.45479613  0.13355006     0.26900
C439        C  0.78165811  0.52910202  0.12310088     0.26900
C440        C  0.72205466  0.40409755  0.24913704     0.35500
C441        C  0.77444404  0.40126257  0.19764969     0.35500
C442        C  0.71102317  0.59547501  0.21965914     0.35500
C443        C  0.76785945  0.59150797  0.17238635     0.35500
C444        C  0.61560537  0.47040036  0.24622023    -0.22000
C445        C  0.61294451  0.51762620  0.23500387    -0.22000
C446        C  0.78627137  0.46282811  0.08698180    -0.22000
C447        C  0.78800823  0.51057461  0.08054771    -0.22000
C448        C  0.75402275  0.37180277  0.26509898    -0.23100
C449        C  0.78592762  0.36803090  0.23123631    -0.23100
C450        C  0.74243267  0.62890112  0.23207053    -0.23100
C451        C  0.77905885  0.62503494  0.20355186    -0.23100
C452        C  0.68274120  0.42127175  0.27015516    -0.18400
C453        C  0.67361546  0.57819563  0.24544575    -0.18400
C454        C  0.79570996  0.57225328  0.13814410    -0.18400
C455        C  0.79909686  0.41722876  0.15911800    -0.18400
H456        H  0.58736771  0.44765470  0.25553107     0.14500
H457        H  0.58209061  0.53871075  0.23515365     0.14500
H458        H  0.79481297  0.43739191  0.06171246     0.14500
H459        H  0.79627379  0.52865587  0.04902602     0.14500
H460        H  0.75664987  0.35429528  0.29790477     0.12800
H461        H  0.81409133  0.34399309  0.23349638     0.12800
H462        H  0.74185276  0.65090471  0.26063049     0.12800
H463        H  0.81078604  0.64312199  0.20796870     0.12800
H464        H  0.72203456  0.50126042  0.24585618     0.26000
H465        H  0.77678378  0.49918439  0.18940094     0.26000
N466        N  0.33370417  0.48878696  0.72253233    -0.36700
N467        N  0.28486601  0.41477854  0.76685900    -0.57300
N468        N  0.22619695  0.48533597  0.80604203    -0.36700
N469        N  0.28726323  0.56047271  0.76926319    -0.57300
C470        C  0.36163445  0.45184074  0.72353131     0.26900
C471        C  0.36071159  0.52632647  0.72151230     0.26900
C472        C  0.22495427  0.44671194  0.83274100     0.26900
C473        C  0.22832584  0.52150836  0.83406063     0.26900
C474        C  0.30701242  0.39086800  0.73449958     0.35500
C475        C  0.24846610  0.38876536  0.78026306     0.35500
C476        C  0.30676634  0.58646926  0.73584504     0.35500
C477        C  0.25078919  0.58458219  0.78368869     0.35500
C478        C  0.40703445  0.46593318  0.72651443    -0.22000
C479        C  0.40646535  0.51398385  0.72407666    -0.22000
C480        C  0.22911255  0.45791026  0.87814921    -0.22000
C481        C  0.23138876  0.50581938  0.87900644    -0.22000
C482        C  0.28672274  0.34781347  0.73002015    -0.23100
C483        C  0.24876588  0.34699001  0.75759523    -0.23100
C484        C  0.28417447  0.62885913  0.73108394    -0.23100
C485        C  0.24823438  0.62739767  0.76082563    -0.23100
C486        C  0.34535220  0.40894240  0.71029201    -0.18400
C487        C  0.34333296  0.56954907  0.70954828    -0.18400
C488        C  0.22185105  0.56709808  0.81815238    -0.18400
C489        C  0.21830431  0.40275305  0.81509281    -0.18400
H490        H  0.43730246  0.44419071  0.72920231     0.14500
H491        H  0.43586411  0.53704964  0.72246910     0.14500
H492        H  0.23345767  0.43459141  0.90732405     0.14500
H493        H  0.23779153  0.52585684  0.90908806     0.14500
H494        H  0.29946178  0.31912116  0.71131070     0.12800
H495        H  0.22515612  0.31850725  0.76055168     0.12800
H496        H  0.29127854  0.65745421  0.70795857     0.12800
H497        H  0.22287166  0.65444207  0.76345967     0.12800
H498        H  0.29852566  0.48853205  0.71501842     0.26000
H499        H  0.22137180  0.48710097  0.77066407     0.26000
C500        C  0.89886586  0.64321790  0.81114581     0.86400
C501        C  0.86134436  0.61327410  0.79025802    -0.53900
C502        C  0.83284034  0.59312630  0.82154687     0.09300
C503        C  0.84619639  0.60147313  0.87135604     0.20200
C504        C  0.87445201  0.67675400  0.84233423    -0.54600
C505        C  0.84467003  0.65562326  0.87117519     0.09400
C506        C  0.92437982  0.60986998  0.84523517    -0.54100
C507        C  0.89776179  0.58588654  0.87636351     0.10000
H508        H  0.85670830  0.60980781  0.75372501     0.14500
H509        H  0.82302854  0.58541939  0.89695086     0.00200
H510        H  0.87985802  0.71431375  0.84194397     0.14800
H511        H  0.96126050  0.60577859  0.84544472     0.14600
O512        O  0.96426997  0.55206200  0.91048562    -0.80300
O513        O  0.05078973  0.52046923  0.09035047    -0.80300
O514        O  0.91409210  0.51675690  0.02562809    -0.80300
O515        O  0.11130714  0.51447996  0.93783828    -0.80200
O516        O  0.97999401  0.55171993  0.03771519    -0.80400
O517        O  0.05025665  0.55284234  0.92076221    -0.80300
O518        O  0.08007386  0.53893940  0.02362731    -0.80300
O519        O  0.90249678  0.51367980  0.92770773    -0.80300
C520        C  0.92149677  0.54873138  0.90754289     1.09400
C521        C  0.07809821  0.54643969  0.06711000     1.09300
C522        C  0.93678546  0.54987615  0.04453953     1.09500
C523        C  0.09267108  0.54969567  0.91705027     1.09300
O524        O  0.05990151  0.45397403  0.88548814    -0.80300
O525        O  0.96896868  0.46016387  0.07761525    -0.80300
O526        O  0.93481657  0.41420272  0.93227758    -0.80300
O527        O  0.12401970  0.45166132  0.02210623    -0.80200
O528        O  0.05823633  0.43063604  0.05222696    -0.80300
O529        O  0.96412253  0.45485300  0.87527102    -0.80300
O530        O  0.07928357  0.41781476  0.94952801    -0.80200
O531        O  0.94502377  0.41641813  0.02290288    -0.80300
Co532      Co  0.00935230  0.50166492  0.90321028     1.51500
Co533      Co  0.01878433  0.49292111  0.03882683     1.51700
Co534      Co  0.93038268  0.46666441  0.97683826     1.51600
Co535      Co  0.07286498  0.47646158  0.98636775     1.51500
O536        O  0.00192190  0.48128600  0.97092412    -1.42200
C537        C  0.08111610  0.42011454  0.90623164     1.09400
C538        C  0.94496976  0.42539417  0.06452591     1.09500
C539        C  0.94144269  0.41926662  0.88998082     1.09400
C540        C  0.10259488  0.42526085  0.05064568     1.09400
C541        C  0.84153958  0.39421146  0.14219159     0.86400
C542        C  0.87343375  0.37313874  0.17795489    -0.53900
C543        C  0.90638049  0.34607389  0.16020889     0.09300
C544        C  0.90803087  0.34661768  0.10740921     0.20200
C545        C  0.87525953  0.42443022  0.11320258    -0.54600
C546        C  0.91061838  0.40030463  0.09486006     0.09400
C547        C  0.82539297  0.35456599  0.11301537    -0.54100
C548        C  0.85891825  0.32889322  0.09505048     0.10000
H549        H  0.87343063  0.38180711  0.21371997     0.14500
H550        H  0.93617126  0.32558663  0.09302448     0.00200
H551        H  0.87264926  0.46212984  0.10890041     0.14800
H552        H  0.78925610  0.34794170  0.10580698     0.14600
C553        C  0.11091503  0.32434257  0.81697432     0.86400
C554        C  0.08244568  0.35874167  0.84575240    -0.53900
C555        C  0.10595934  0.38218875  0.87839393     0.09300
C556        C  0.15877820  0.36827872  0.87771988     0.20200
C557        C  0.14827952  0.35556825  0.79602199    -0.54600
C558        C  0.17526046  0.37727480  0.82781051     0.09400
C559        C  0.13658868  0.29190047  0.85004016    -0.54100
C560        C  0.16299697  0.31406744  0.88043726     0.10000
H561        H  0.04602962  0.36475829  0.83980315     0.14500
H562        H  0.17903203  0.38487794  0.90469621     0.00200
H563        H  0.15393084  0.35868706  0.75959045     0.14800
H564        H  0.13584580  0.25399484  0.84804101     0.14600
C565        C  0.11711520  0.64792167  0.82367488     0.86400
C566        C  0.14528324  0.67743317  0.85682359    -0.53900
C567        C  0.17308010  0.65156344  0.88541190     0.09300
C568        C  0.16717467  0.59831697  0.88188122     0.20200
C569        C  0.15199247  0.61574654  0.80162912    -0.54600
C570        C  0.17966618  0.59157279  0.83188933     0.09400
C571        C  0.08983090  0.61452832  0.85650336    -0.54100
C572        C  0.11564485  0.58684217  0.88623285     0.10000
H573        H  0.14506887  0.71521775  0.85709987     0.14500
H574        H  0.18805373  0.57902693  0.90731234     0.00200
H575        H  0.15545804  0.61373249  0.76493143     0.14800
H576        H  0.05267503  0.61276792  0.85621451     0.14600
C577        C  0.85539583  0.38243806  0.79707229     0.86400
C578        C  0.89094278  0.41152518  0.82329323    -0.53900
C579        C  0.91527612  0.38867238  0.85619305     0.09300
C580        C  0.90393971  0.33440038  0.85648929     0.20200
C581        C  0.88537422  0.34622816  0.77489580    -0.54600
C582        C  0.90766617  0.31767941  0.80590147     0.09400
C583        C  0.82696919  0.35379954  0.83142399    -0.54100
C584        C  0.85190671  0.32931283  0.86250275     0.02400
H585        H  0.89399044  0.44918472  0.81810502     0.14500
H586        H  0.92340916  0.31412947  0.88268624     0.00200
H587        H  0.88997254  0.34243781  0.73888747     0.14800
H588        H  0.78962768  0.35335044  0.83129533     0.14600
C589        C  0.91312680  0.63003442  0.15084879     0.86400
C590        C  0.93990697  0.60070499  0.11533486    -0.53900
C591        C  0.91456242  0.58361551  0.07943965     0.09300
C592        C  0.86287130  0.60010247  0.08291029     0.20200
C593        C  0.89067625  0.66926829  0.12159672    -0.54600
C594        C  0.86245349  0.65367017  0.08824467     0.09400
C595        C  0.87338672  0.59812434  0.16530706    -0.54100
C596        C  0.84489977  0.58531226  0.13036100     0.10000
H597        H  0.97607864  0.59296321  0.11844997     0.14500
H598        H  0.84110402  0.58917724  0.05402474     0.00200
H599        H  0.89474878  0.70626192  0.12791214     0.14800
H600        H  0.86619444  0.59005962  0.20083543     0.14600
N601        N  0.69550198  0.49528496  0.69962572    -0.36700
N602        N  0.71922537  0.56685329  0.76859568    -0.57300
N603        N  0.79250661  0.49316162  0.77997050    -0.36700
N604        N  0.76461955  0.42934151  0.71586747    -0.57300
C605        C  0.66056637  0.52182822  0.71305544     0.26900
C606        C  0.67777684  0.45371171  0.68943838     0.26900
C607        C  0.78896313  0.52216129  0.81515780     0.26900
C608        C  0.80384483  0.45110324  0.79786567     0.26900
C609        C  0.69888717  0.59067460  0.73417603     0.35500
C610        C  0.75815923  0.58950784  0.77821650     0.35500
C611        C  0.74674333  0.40999550  0.67878979     0.35500
C612        C  0.80221978  0.40565212  0.72850628     0.35500
C613        C  0.62065156  0.49584750  0.71581295    -0.22000
C614        C  0.63140230  0.45253295  0.69938891    -0.22000
C615        C  0.79581493  0.49902568  0.85610526    -0.22000
C616        C  0.80402863  0.45374274  0.84554105    -0.22000
C617        C  0.72376269  0.63073022  0.72361506    -0.23100
C618        C  0.76184624  0.62972309  0.75142451    -0.23100
C619        C  0.77427872  0.37390829  0.66502693    -0.23100
C620        C  0.80913127  0.37015388  0.69740108    -0.23100
C621        C  0.66387808  0.57015528  0.70839952    -0.18400
C622        C  0.70231093  0.42131042  0.66446880    -0.18400
C623        C  0.82238771  0.41434162  0.77151805    -0.18400
C624        C  0.79025310  0.56983478  0.80847828    -0.18400
H625        H  0.58656783  0.50861506  0.72292792     0.14500
H626        H  0.60737154  0.42477822  0.69317330     0.14500
H627        H  0.79641496  0.51315160  0.88988512     0.14500
H628        H  0.81264835  0.42743822  0.87104495     0.14500
H629        H  0.71922011  0.65481009  0.69529790     0.12800
H630        H  0.79012358  0.65399294  0.74903844     0.12800
H631        H  0.76814162  0.35040053  0.63728993     0.12800
H632        H  0.83335384  0.34208547  0.69771301     0.12800
H633        H  0.72781079  0.50769853  0.68990138     0.26000
H634        H  0.79490960  0.50381229  0.74576016     0.26000
C635        C  0.10927760  0.58397367  0.09061755     0.86400
C636        C  0.14514285  0.61023338  0.06118844    -0.53900
C637        C  0.17449849  0.64032281  0.08481350     0.09300
C638        C  0.16439666  0.63990871  0.13584864     0.20200
C639        C  0.13867455  0.55988288  0.12753582    -0.54600
C640        C  0.16924407  0.58837052  0.14909135     0.09400
C641        C  0.08525972  0.62381022  0.11518856    -0.54100
C642        C  0.11372852  0.65115557  0.14208834     0.10000
H643        H  0.14863555  0.60163957  0.02576101     0.14500
H644        H  0.18570232  0.66311331  0.15600901     0.00200
H645        H  0.13949837  0.52214938  0.13204110     0.14800
H646        H  0.04820587  0.62587727  0.11625530     0.14600
C647        C  0.19904211  0.38800742  0.13482902     0.86400
C648        C  0.21387005  0.34822942  0.10579851    -0.53900
C649        C  0.17937599  0.32064970  0.09085257     0.09300
C650        C  0.13054709  0.34086666  0.10145729     0.20200
C651        C  0.16582501  0.41739800  0.10499732    -0.54600
C652        C  0.13077848  0.39466556  0.08499373     0.09400
C653        C  0.16801581  0.36636386  0.17158062    -0.54100
C654        C  0.13324327  0.34004986  0.15471121     0.10000
H655        H  0.24988951  0.34079180  0.09990403     0.14500
H656        H  0.10090414  0.32086354  0.08881523     0.00200
H657        H  0.16766350  0.45484905  0.10095326     0.14800
H658        H  0.17293547  0.37128695  0.20787896     0.14600
N659        N  0.19853233  0.99417479  0.70351782    -0.36700
N660        N  0.24761215  0.91974003  0.75263761    -0.57300
N661        N  0.29902109  0.99316868  0.79840934    -0.36700
N662        N  0.24555454  0.06535272  0.74895700    -0.57300
C663        C  0.17278836  0.95549098  0.70258854     0.26900
C664        C  0.16972248  0.03058797  0.69813553     0.26900
C665        C  0.32688600  0.95620129  0.80596582     0.26900
C666        C  0.32711919  0.03045742  0.80001613     0.26900
C667        C  0.22898109  0.89543233  0.71745255     0.35500
C668        C  0.28081833  0.89303790  0.77288475     0.35500
C669        C  0.22329450  0.09172624  0.71639558     0.35500
C670        C  0.27704043  0.09315157  0.76926512     0.35500
C671        C  0.12664357  0.96727664  0.69976434    -0.22000
C672        C  0.12473504  0.01526885  0.69641434    -0.22000
C673        C  0.37226736  0.97039557  0.81084346    -0.22000
C674        C  0.37243139  0.01679193  0.80583383    -0.22000
C675        C  0.25119114  0.85286774  0.71497637    -0.23100
C676        C  0.28232388  0.85072410  0.75074907    -0.23100
C677        C  0.24109608  0.13645412  0.71645317    -0.23100
C678        C  0.27299804  0.13790981  0.75124059    -0.23100
C679        C  0.19145316  0.91287027  0.69007092    -0.18400
C680        C  0.18563283  0.07555603  0.68901421    -0.18400
C681        C  0.31430738  0.07703206  0.79730127    -0.18400
C682        C  0.31453838  0.90939142  0.80510134    -0.18400
H683        H  0.09793552  0.94358846  0.69613654     0.14500
H684        H  0.09381031  0.03571938  0.69290522     0.14500
H685        H  0.40304811  0.94960971  0.81493029     0.14500
H686        H  0.40317486  0.03776909  0.80468942     0.14500
H687        H  0.24779649  0.82631001  0.68988629     0.12800
H688        H  0.30623360  0.82260999  0.75632897     0.12800
H689        H  0.23375874  0.16479050  0.69310023     0.12800
H690        H  0.29293537  0.16783450  0.75994788     0.12800
H691        H  0.23413739  0.99526505  0.69953830     0.26000
H692        H  0.26329045  0.99305537  0.79602267     0.26000
N693        N  0.51076885  0.82027127  0.20543819    -0.36700
N694        N  0.57809712  0.77410615  0.26095314    -0.57300
N695        N  0.50963986  0.72449489  0.31476419    -0.36700
N696        N  0.44020751  0.77865717  0.26296073    -0.57300
C697        C  0.54830681  0.84607217  0.19744310     0.26900
C698        C  0.47510373  0.84956843  0.20096893     0.26900
C699        C  0.54586223  0.69548747  0.31169361     0.26900
C700        C  0.47265580  0.69649820  0.31245496     0.26900
C701        C  0.60648574  0.79785546  0.23275685     0.35500
C702        C  0.60546295  0.75051573  0.29087451     0.35500
C703        C  0.41425882  0.79994673  0.22997932     0.35500
C704        C  0.41198435  0.74838957  0.28508722     0.35500
C705        C  0.53683851  0.89250256  0.18987441    -0.22000
C706        C  0.49007923  0.89467966  0.19178436    -0.22000
C707        C  0.53142221  0.65012321  0.30469023    -0.22000
C708        C  0.48542952  0.65056883  0.30591052    -0.22000
C709        C  0.65122295  0.79217351  0.24658674    -0.23100
C710        C  0.65054636  0.76326634  0.28430875    -0.23100
C711        C  0.36969209  0.78434393  0.23207411    -0.23100
C712        C  0.36804979  0.75233235  0.26710839    -0.23100
C713        C  0.59199226  0.82734008  0.19678792    -0.18400
C714        C  0.43038480  0.83381096  0.19839010    -0.18400
C715        C  0.42720764  0.71066462  0.31334162    -0.18400
C716        C  0.59172793  0.70893210  0.31308331    -0.18400
H717        H  0.55899826  0.92248225  0.18666790     0.14500
H718        H  0.47051840  0.92653329  0.18919059     0.14500
H719        H  0.55103867  0.62016075  0.29536037     0.14500
H720        H  0.46405438  0.62069803  0.29914157     0.14500
H721        H  0.68051593  0.80909381  0.23251473     0.12800
H722        H  0.67971135  0.75221441  0.30402245     0.12800
H723        H  0.34121780  0.79480663  0.21049402     0.12800
H724        H  0.33898548  0.73075368  0.27400117     0.12800
H725        H  0.50922338  0.78380865  0.20827941     0.26000
H726        H  0.51014607  0.76041418  0.32034760     0.26000
N727        N  0.52473711  0.20646767  0.78116904    -0.36700
N728        N  0.45365084  0.25363267  0.72883961    -0.57300
N729        N  0.52038237  0.33269543  0.66772396    -0.36700
N730        N  0.59543755  0.26669952  0.74261067    -0.57300
C731        C  0.48551723  0.20735426  0.80429815     0.26900
C732        C  0.55808290  0.21348490  0.81197137     0.26900
C733        C  0.48300586  0.33784990  0.69276399     0.26900
C734        C  0.55624956  0.33973024  0.69558037     0.26900
C735        C  0.42743222  0.22060666  0.74824655     0.35500
C736        C  0.42619849  0.27877903  0.70102361     0.35500
C737        C  0.62180453  0.23552492  0.76610622     0.35500
C738        C  0.62160049  0.29227709  0.71337141     0.35500
C739        C  0.49362026  0.21738040  0.84968263    -0.22000
C740        C  0.54012495  0.22228579  0.85424615    -0.22000
C741        C  0.49452312  0.34827238  0.73726932    -0.22000
C742        C  0.54157986  0.35004418  0.73900782    -0.22000
C743        C  0.38278726  0.22449557  0.73201994    -0.23100
C744        C  0.38223781  0.26091748  0.70098503    -0.23100
C745        C  0.66672086  0.24185711  0.75280744    -0.23100
C746        C  0.66687396  0.27749430  0.71941494    -0.23100
C747        C  0.44380328  0.19376388  0.78522837    -0.18400
C748        C  0.60368353  0.20660623  0.80199923    -0.18400
C749        C  0.60062312  0.32732229  0.68377242    -0.18400
C750        C  0.44195872  0.31904643  0.67898080    -0.18400
H751        H  0.46895197  0.22057507  0.87666763     0.14500
H752        H  0.55817506  0.23210743  0.88479596     0.14500
H753        H  0.47151474  0.35055244  0.76584255     0.14500
H754        H  0.56268025  0.35467579  0.76913944     0.14500
H755        H  0.35271763  0.20687273  0.74370125     0.12800
H756        H  0.35230946  0.27404333  0.68309354     0.12800
H757        H  0.69659536  0.22595310  0.76807617     0.12800
H758        H  0.69777683  0.29207214  0.70539706     0.12800
H759        H  0.52884727  0.19640752  0.74742665     0.26000
H760        H  0.52126685  0.31785524  0.63548370     0.26000
C761        C  0.67959436  0.09818110  0.82913959     0.86400
C762        C  0.65271103  0.13407985  0.79934949    -0.53900
C763        C  0.62559978  0.16339648  0.82331325     0.09300
C764        C  0.62418507  0.15010780  0.87527986     0.20200
C765        C  0.70322907  0.12636908  0.86568518    -0.54600
C766        C  0.67563020  0.15665396  0.88734677     0.09400
C767        C  0.64097489  0.07050308  0.85531260    -0.54100
C768        C  0.61231029  0.09620530  0.88200789     0.10000
H769        H  0.65512944  0.13684114  0.76258155     0.14500
H770        H  0.60086985  0.17110652  0.89461225     0.00200
H771        H  0.74025965  0.12587932  0.87049343     0.14800
H772        H  0.63681177  0.03295103  0.85315379     0.14600
O773        O  0.44333706  0.06525518  0.94342688    -0.80300
O774        O  0.44498367  0.93035225  0.01913597    -0.80300
O775        O  0.45678427  0.94770177  0.91553208    -0.80300
O776        O  0.48527970  0.04594350  0.09161339    -0.80200
O777        O  0.47513739  0.87981018  0.94664299    -0.80400
O778        O  0.44589966  0.07483269  0.03367385    -0.80300
O779        O  0.47751319  0.94744708  0.08454920    -0.80300
O780        O  0.48202202  0.03867191  0.88668804    -0.80300
C781        C  0.44815003  0.06327511  0.90094787     1.09400
C782        C  0.44445689  0.92769492  0.06272154     1.09300
C783        C  0.45085395  0.90251603  0.91687803     1.09500
C784        C  0.45197741  0.07071413  0.07628892     1.09300
O785        O  0.54422827  0.10349589  0.03348572    -0.80300
O786        O  0.56125547  0.92135726  0.93833687    -0.80300
O787        O  0.57618709  0.02700600  0.91928196    -0.80300
O788        O  0.57803280  0.94981855  0.05991994    -0.80200
O789        O  0.54025452  0.89262925  0.02864432    -0.80300
O790        O  0.54415451  0.09420325  0.93500994    -0.80300
O791        O  0.58117662  0.04334321  0.06404530    -0.80200
O792        O  0.54270063  0.95248561  0.87168756    -0.80300
Co793      Co  0.49630321  0.07706911  0.98667774     1.51500
Co794      Co  0.50229775  0.93265257  0.97976376     1.51700
Co795      Co  0.51838099  0.98751660  0.92438507     1.51600
Co796      Co  0.52855144  0.99674157  0.06691249     1.51500
O797        O  0.51254929  0.00404221  0.99485603    -1.42200
C798        C  0.57716889  0.08737676  0.05906371     1.09400
C799        C  0.56695117  0.92217314  0.89407941     1.09500
C800        C  0.57570340  0.07158815  0.91415475     1.09400
C801        C  0.57332838  0.90661553  0.05492905     1.09400
C802        C  0.66406015  0.80789021  0.08956045     0.86400
C803        C  0.62741992  0.83614383  0.06027141    -0.53900
C804        C  0.60884922  0.87409869  0.07994360     0.09300
C805        C  0.62914419  0.87936486  0.12990613     0.20200
C806        C  0.69968951  0.84227113  0.10663980    -0.54600
C807        C  0.68263133  0.87792917  0.12963041     0.09400
C808        C  0.63726259  0.79395394  0.13265586    -0.54100
C809        C  0.61899190  0.83205254  0.15433770     0.10000
H810        H  0.61696175  0.82647300  0.02614190     0.14500
H811        H  0.61691484  0.91068414  0.14701536     0.00200
H812        H  0.73647497  0.83686861  0.10356596     0.14800
H813        H  0.63310679  0.75811362  0.14488301     0.14600
C814        C  0.41330966  0.82459359  0.81433537     0.86400
C815        C  0.44376549  0.85183997  0.84858382    -0.53900
C816        C  0.42141108  0.87693416  0.88025755     0.09300
C817        C  0.36733916  0.87017451  0.87427783     0.20200
C818        C  0.38496513  0.79235965  0.84567371    -0.54600
C819        C  0.35945673  0.81665001  0.87649166     0.09400
C820        C  0.37924287  0.85837747  0.79358665    -0.54100
C821        C  0.35208863  0.87883321  0.82341658     0.10000
H822        H  0.48101662  0.85007476  0.84848830     0.14500
H823        H  0.34761627  0.89129781  0.89802271     0.00200
H824        H  0.38338020  0.75466298  0.84263487     0.14800
H825        H  0.37551100  0.86453578  0.75695834     0.14600
C826        C  0.41430480  0.16161363  0.81304369     0.86400
C827        C  0.44272744  0.12429963  0.83971695    -0.53900
C828        C  0.41941966  0.09653494  0.86922305     0.09300
C829        C  0.36570088  0.10919849  0.86717803     0.20200
C830        C  0.37837082  0.13321974  0.78761273    -0.54600
C831        C  0.35023372  0.10849041  0.81583982     0.09400
C832        C  0.38746340  0.18920372  0.84757499    -0.54100
C833        C  0.36060261  0.16244970  0.87473143     0.10000
H834        H  0.47967274  0.12090450  0.83625663     0.14500
H835        H  0.34429862  0.08718357  0.89024761     0.00200
H836        H  0.37575456  0.13157703  0.75076437     0.14800
H837        H  0.38802661  0.22713952  0.84903858     0.14600
C838        C  0.65261966  0.81602100  0.87074360     0.86400
C839        C  0.62390794  0.80084368  0.82957229    -0.53900
C840        C  0.60929162  0.83770068  0.80184200     0.09300
C841        C  0.62085070  0.88651686  0.82094668     0.20200
C842        C  0.68956039  0.84660692  0.85004484    -0.54600
C843        C  0.67380149  0.88193123  0.82334905     0.09400
C844        C  0.61948788  0.84998575  0.89619050    -0.54100
C845        C  0.60195722  0.88761827  0.87156346     0.10000
H846        H  0.61819081  0.76452154  0.82140715     0.14500
H847        H  0.60981252  0.91652673  0.79902537     0.00200
H848        H  0.72606900  0.83957240  0.85442265     0.14800
H849        H  0.60985271  0.84369016  0.93143718     0.14600
C850        C  0.35226025  0.82835659  0.09285864     0.86400
C851        C  0.38501270  0.80999492  0.13016040    -0.53900
C852        C  0.40429380  0.84474215  0.15581692     0.09300
C853        C  0.39146652  0.89479068  0.13911578     0.20200
C854        C  0.31854211  0.85856077  0.11766324    -0.54600
C855        C  0.33807113  0.89187716  0.14299574     0.09400
C856        C  0.38370081  0.86266867  0.06412408    -0.54100
C857        C  0.40587663  0.89760704  0.08710626     0.10000
H858        H  0.39068774  0.77301465  0.13727919     0.14500
H859        H  0.40499446  0.92357093  0.15952500     0.00200
H860        H  0.28159410  0.85333533  0.11616138     0.14800
H861        H  0.39070113  0.85705287  0.02841136     0.14600
N862        N  0.51396665  0.81069575  0.74702443    -0.36700
N863        N  0.44146987  0.76041059  0.70531117    -0.57300
N864        N  0.50854950  0.72291034  0.64965854    -0.36700
N865        N  0.58334427  0.78015849  0.68941053    -0.57300
C866        C  0.47505248  0.83132516  0.75782266     0.26900
C867        C  0.54616859  0.84391992  0.74757443     0.26900
C868        C  0.47068227  0.71110547  0.62561972     0.26900
C869        C  0.54486608  0.71828756  0.62233719     0.26900
C870        C  0.41980481  0.77248629  0.74378640     0.35500
C871        C  0.41359426  0.73134872  0.68271074     0.35500
C872        C  0.60753377  0.79636395  0.72560479     0.35500
C873        C  0.60619528  0.74258339  0.67470426     0.35500
C874        C  0.48136899  0.87939686  0.76090217    -0.22000
C875        C  0.52733998  0.88720182  0.75543637    -0.22000
C876        C  0.48289521  0.69996837  0.58180717    -0.22000
C877        C  0.52975394  0.70508777  0.57955016    -0.22000
C878        C  0.37642361  0.75313879  0.74431506    -0.23100
C879        C  0.37200309  0.72843531  0.70486030    -0.23100
C880        C  0.64772974  0.77195131  0.73140294    -0.23100
C881        C  0.64658341  0.73754460  0.70000551    -0.23100
C882        C  0.43860293  0.80488532  0.77447086    -0.18400
C883        C  0.59086891  0.83097187  0.75466489    -0.18400
C884        C  0.58930690  0.71232838  0.64032849    -0.18400
C885        C  0.42739569  0.70414756  0.64525794    -0.18400
H886        H  0.45658759  0.90543514  0.77030931     0.14500
H887        H  0.54475345  0.92018202  0.75939512     0.14500
H888        H  0.46103679  0.68904103  0.55420438     0.14500
H889        H  0.54978991  0.69928342  0.54959885     0.14500
H890        H  0.35019352  0.75708289  0.76921686     0.12800
H891        H  0.34187942  0.71020552  0.69363057     0.12800
H892        H  0.67497836  0.77844284  0.75549862     0.12800
H893        H  0.67252539  0.71144860  0.69762452     0.12800
H894        H  0.51977270  0.77459599  0.74918679     0.26000
H895        H  0.51117708  0.72481334  0.68501735     0.26000
C896        C  0.41460712  0.15338622  0.17375333     0.86400
C897        C  0.37443856  0.12244040  0.18860508    -0.53900
C898        C  0.34972724  0.10374852  0.15357744     0.09300
C899        C  0.37159577  0.11320501  0.10646798     0.20200
C900        C  0.44480172  0.12079236  0.14458442    -0.54600
C901        C  0.42343424  0.09912977  0.10947935     0.09400
C902        C  0.39451840  0.18783099  0.13754837    -0.54100
C903        C  0.36965481  0.16661425  0.10442369     0.10000
H904        H  0.36488742  0.11813827  0.22410811     0.14500
H905        H  0.35388479  0.09827595  0.07700740     0.00200
H906        H  0.48145220  0.11790095  0.14780335     0.14800
H907        H  0.39962490  0.22522366  0.13685999     0.14600
C908        C  0.61719620  0.16878539  0.15836214     0.86400
C909        C  0.64743369  0.20063656  0.12887933    -0.53900
C910        C  0.67294016  0.17761286  0.09841935     0.09300
C911        C  0.66127864  0.12481553  0.09555319     0.20200
C912        C  0.58534391  0.14492964  0.12288595    -0.54600
C913        C  0.60674198  0.12020060  0.08967802     0.09400
C914        C  0.64816822  0.12991148  0.17675329    -0.54100
C915        C  0.67343080  0.10819789  0.14513130     0.10000
H916        H  0.64523673  0.23837366  0.12752680     0.14500
H917        H  0.68160073  0.10970702  0.06800356     0.00200
H918        H  0.54838008  0.14625815  0.12497765     0.14800
H919        H  0.65170971  0.12189575  0.21303659     0.14600
N920        N  0.01808924  0.67009655  0.20460929    -0.36700
N921        N  0.09523464  0.72224455  0.25066647    -0.57300
N922        N  0.01969304  0.76136497  0.29708598    -0.36700
N923        N  0.94718477  0.70283119  0.25656643    -0.57300
C924        C  0.05827028  0.64762704  0.20468255     0.26900
C925        C  0.98513440  0.63755426  0.20081983     0.26900
C926        C  0.05772427  0.76516263  0.32298204     0.26900
C927        C  0.98415504  0.75866400  0.32562015     0.26900
C928        C  0.11303319  0.71047598  0.21022045     0.35500
C929        C  0.11414525  0.76279362  0.26478510     0.35500
C930        C  0.92221723  0.68503340  0.22170680     0.35500
C931        C  0.92270467  0.73790534  0.27447496     0.35500
C932        C  0.05067138  0.59955092  0.20513985    -0.22000
C933        C  0.00382066  0.59319275  0.20221475    -0.22000
C934        C  0.04689899  0.76082268  0.36869194    -0.22000
C935        C  0.99991167  0.75720673  0.37037272    -0.22000
C936        C  0.14575842  0.74381338  0.19820539    -0.23100
C937        C  0.14647647  0.77705983  0.23286141    -0.23100
C938        C  0.88048714  0.70780078  0.21926583    -0.23100
C939        C  0.88051175  0.74052269  0.25293416    -0.23100
C940        C  0.09680989  0.67018176  0.18665907    -0.18400
C941        C  0.93953748  0.64980543  0.19258037    -0.18400
C942        C  0.93938149  0.76640182  0.31002057    -0.18400
C943        C  0.09793715  0.78464152  0.30522061    -0.18400
H944        H  0.07629168  0.57244403  0.20225628     0.14500
H945        H  0.98587663  0.56031521  0.19885281     0.14500
H946        H  0.07002079  0.76417316  0.39755508     0.14500
H947        H  0.98054995  0.75412903  0.40120103     0.14500
H948        H  0.16579219  0.74508924  0.16738301     0.12800
H949        H  0.16687836  0.80861709  0.23315336     0.12800
H950        H  0.85352565  0.70348663  0.19500474     0.12800
H951        H  0.85277676  0.76356560  0.26019505     0.12800
H952        H  0.01369529  0.70605495  0.19878068     0.26000
H953        H  0.01727347  0.76849990  0.26200288     0.26000
N954        N  0.72530259  0.99271396  0.16714526    -0.36700
N955        N  0.77452484  0.06254934  0.21716944    -0.57300
N956        N  0.81914011  0.98730530  0.26993832    -0.36700
N957        N  0.77239892  0.91773631  0.21757876    -0.57300
C958        C  0.71228717  0.03139096  0.14306394     0.26900
C959        C  0.71259787  0.95597869  0.14208506     0.26900
C960        C  0.84688860  0.02483520  0.27193020     0.26900
C961        C  0.84682459  0.94960561  0.27036965     0.26900
C962        C  0.74199920  0.09023096  0.19706447     0.35500
C963        C  0.79567650  0.08788913  0.24987584     0.35500
C964        C  0.74470153  0.89134222  0.19106246     0.35500
C965        C  0.79559134  0.88856485  0.24718286     0.35500
C966        C  0.69218252  0.01840130  0.10211625    -0.22000
C967        C  0.69324030  0.97115072  0.10121048    -0.22000
C968        C  0.89246536  0.01133733  0.27064660    -0.22000
C969        C  0.89244048  0.96338572  0.26923791    -0.22000
C970        C  0.74396120  0.13407732  0.21644019    -0.23100
C971        C  0.77841367  0.13281435  0.24872394    -0.23100
C972        C  0.75244966  0.84472532  0.20240670    -0.23100
C973        C  0.78325337  0.84314413  0.23856634    -0.23100
C974        C  0.71186471  0.07663502  0.16058114    -0.18400
C975        C  0.71385793  0.90907959  0.15617253    -0.18400
C976        C  0.83124969  0.90357459  0.27742192    -0.18400
C977        C  0.83114627  0.07017529  0.27923176    -0.18400
H978        H  0.67616840  0.03873544  0.07542597     0.14500
H979        H  0.67942643  0.95030985  0.07399276     0.14500
H980        H  0.92238826  0.03367949  0.27221688     0.14500
H981        H  0.92240875  0.94101447  0.26979841     0.14500
H982        H  0.72346332  0.16463063  0.20818378     0.12800
H983        H  0.78980677  0.16220618  0.26797786     0.12800
H984        H  0.73853100  0.81456468  0.18575851     0.12800
H985        H  0.79667602  0.81206673  0.25456430     0.12800
H986        H  0.73505602  0.99126208  0.20134016     0.26000
H987        H  0.78357765  0.98723039  0.27428363     0.26000
N988        N  0.81341043  0.16960591  0.47203959    -0.36700
N989        N  0.78956223  0.27415517  0.39546669    -0.57300
N990        N  0.73532641  0.30701462  0.47776270    -0.36700
N991        N  0.75066157  0.24062861  0.54647972    -0.57300
C992        C  0.83162282  0.20040709  0.44246993     0.26900
C993        C  0.81696161  0.18918640  0.51263299     0.26900
C994        C  0.74585083  0.33961968  0.44591365     0.26900
C995        C  0.72913737  0.32939005  0.51691140     0.26900
C996        C  0.79557120  0.23288722  0.37533232     0.35500
C997        C  0.75033881  0.29332756  0.37967972     0.35500
C998        C  0.76159481  0.20093028  0.56927266     0.35500
C999        C  0.71859619  0.26379944  0.56889803     0.35500
C1000       C  0.84869532  0.23918668  0.46434960    -0.22000
C1001       C  0.83966125  0.23182346  0.50958676    -0.22000
C1002       C  0.75198842  0.38258377  0.46607917    -0.22000
C1003       C  0.74022263  0.37625402  0.51123571    -0.22000
C1004       C  0.76066634  0.22629856  0.34392082    -0.23100
C1005       C  0.73112813  0.26384658  0.34769539    -0.23100
C1006       C  0.73474099  0.19764954  0.60804006    -0.23100
C1007       C  0.70672899  0.23757442  0.60738767    -0.23100
C1008       C  0.82191319  0.19732174  0.39674612    -0.18400
C1009       C  0.79543924  0.17084417  0.55128297    -0.18400
C1010       C  0.70515456  0.30913373  0.55365712    -0.18400
C1011       C  0.73155307  0.33291620  0.40086816    -0.18400
H1012       H  0.86339298  0.27042275  0.44893311     0.14500
H1013       H  0.84589708  0.25626922  0.53652004     0.14500
H1014       H  0.75694650  0.41596894  0.44867741     0.14500
H1015       H  0.73629362  0.40347356  0.53586796     0.14500
H1016       H  0.75205199  0.19474754  0.32659209     0.12800
H1017       H  0.69669877  0.26400335  0.33399276     0.12800
H1018       H  0.73381205  0.16960536  0.63316479     0.12800
H1019       H  0.68124615  0.24606816  0.63227768     0.12800
H1020       H  0.79469405  0.13959316  0.46425460     0.26000
H1021       H  0.72316107  0.27350254  0.47077798     0.26000
N1022       N  0.22877677  0.79790549  0.48673260    -0.36700
N1023       N  0.26143297  0.74333619  0.41830355    -0.57300
N1024       N  0.29519874  0.68170535  0.49048696    -0.36700
N1025       N  0.26416918  0.74064885  0.56285671    -0.57300
C1026       C  0.23053651  0.82740817  0.45028242     0.26900
C1027       C  0.23301941  0.82384322  0.52414445     0.26900
C1028       C  0.30633171  0.65678396  0.45409956     0.26900
C1029       C  0.29924201  0.65188330  0.52633489     0.26900
C1030       C  0.23832129  0.77330659  0.38984348     0.35500
C1031       C  0.28471892  0.71330095  0.39285467     0.35500
C1032       C  0.23075550  0.76432225  0.58360827     0.35500
C1033       C  0.27171645  0.70123246  0.58733615     0.35500
C1034       C  0.23828179  0.87262075  0.46432276    -0.22000
C1035       C  0.24027019  0.87034079  0.51133381    -0.22000
C1036       C  0.31565208  0.61065266  0.46658896    -0.22000
C1037       C  0.31037200  0.60750657  0.51250144    -0.22000
C1038       C  0.24665111  0.76123976  0.34522902    -0.23100
C1039       C  0.27655794  0.72402986  0.34761732    -0.23100
C1040       C  0.21578060  0.73890110  0.62141289    -0.23100
C1041       C  0.24284955  0.69932091  0.62446280    -0.23100
C1042       C  0.21732715  0.81442316  0.40601164    -0.18400
C1043       C  0.21560539  0.80803246  0.56644104    -0.18400
C1044       C  0.29810131  0.66407268  0.57168022    -0.18400
C1045       C  0.31067503  0.67486358  0.41016669    -0.18400
H1046       H  0.23892511  0.90406521  0.44307353     0.14500
H1047       H  0.24151975  0.89993249  0.53361723     0.14500
H1048       H  0.32542187  0.58229727  0.44492092     0.14500
H1049       H  0.31481656  0.57639817  0.53376574     0.14500
H1050       H  0.23689785  0.77806118  0.31366342     0.12800
H1051       H  0.29017745  0.70631079  0.31932427     0.12800
H1052       H  0.18682428  0.74546147  0.64285100     0.12800
H1053       H  0.23772606  0.67040315  0.64810872     0.12800
H1054       H  0.21645414  0.76359156  0.48650899     0.26000
H1055       H  0.29222864  0.71787251  0.49124975     0.26000
C1056       C  0.85460507  0.09961015  0.31637239     0.86400
C1057       C  0.82111971  0.12756463  0.34544373    -0.53900
C1058       C  0.84252459  0.15667489  0.37483694     0.09300
C1059       C  0.89495255  0.15197708  0.37650329     0.20200
C1060       C  0.88729269  0.13620354  0.29587607    -0.54600
C1061       C  0.90735783  0.16476292  0.32714138     0.09400
C1062       C  0.88424312  0.07257398  0.35254351    -0.54100
C1063       C  0.90677254  0.09953562  0.38355999     0.10000
H1064       H  0.78417829  0.12584170  0.34169074     0.14500
H1065       H  0.90939899  0.17447911  0.40273553     0.00200
H1066       H  0.89260085  0.14031637  0.25942661     0.14800
H1067       H  0.88692613  0.03479166  0.35416326     0.14600
O1068       O  0.95028189  0.03498848  0.41386242    -0.80300
O1069       O  0.06967824  0.96212806  0.41661306    -0.80300
O1070       O  0.05452995  0.07490337  0.43072366    -0.80300
O1071       O  0.95903465  0.88234864  0.45119869    -0.80200
O1072       O  0.11833961  0.03442756  0.44777711    -0.80400
O1073       O  0.94327776  0.94461089  0.41085809    -0.80300
O1074       O  0.05683592  0.89501849  0.45157596    -0.80300
O1075       O  0.95912113  0.09749603  0.45079903    -0.80300
C1076       C  0.94003490  0.07729250  0.41780296     1.09400
C1077       C  0.07576453  0.91801441  0.41873928     1.09300
C1078       C  0.09813244  0.06659671  0.42362316     1.09500
C1079       C  0.93992738  0.90104547  0.41589260     1.09300
O1080       O  0.90136392  0.93822636  0.50255648    -0.80300
O1081       O  0.08369447  0.03139832  0.53685431    -0.80300
O1082       O  0.97074865  0.06576894  0.54250586    -0.80300
O1083       O  0.04805132  0.92503978  0.54820154    -0.80200
O1084       O  0.10747378  0.94778397  0.50972930    -0.80300
O1085       O  0.91067909  0.03453177  0.50865160    -0.80300
O1086       O  0.95954440  0.91673419  0.54502144    -0.80200
O1087       O  0.05170359  0.09716449  0.52127920    -0.80300
Co1088     Co  0.93244345  0.98799198  0.46095381     1.51500
Co1089     Co  0.06926728  0.99837259  0.47498444     1.51700
Co1090     Co  0.00765972  0.05792638  0.48477285     1.51600
Co1091     Co  0.00589379  0.91077145  0.49762093     1.51500
O1092       O  0.00105466  0.98337029  0.48556960    -1.42200
C1093       C  0.91696649  0.91680824  0.53802974     1.09400
C1094       C  0.08186008  0.07527065  0.54430498     1.09500
C1095       C  0.92754062  0.05878591  0.54112280     1.09400
C1096       C  0.09078485  0.92572787  0.54440601     1.09400
C1097       C  0.85738159  0.87196187  0.31368398     0.86400
C1098       C  0.88486981  0.89998148  0.34954506    -0.53900
C1099       C  0.91107706  0.87494656  0.38026684     0.09300
C1100       C  0.90446069  0.82147875  0.37366561     0.20200
C1101       C  0.89258125  0.83904378  0.29275955    -0.54600
C1102       C  0.91546665  0.81048724  0.32368629     0.09400
C1103       C  0.82764041  0.83933789  0.34390526    -0.54100
C1104       C  0.85234106  0.81138593  0.37439162     0.10000
H1105       H  0.88211302  0.93760118  0.35207080     0.14500
H1106       H  0.92456783  0.80146138  0.39854506     0.00200
H1107       H  0.89607315  0.83592178  0.25616691     0.14800
H1108       H  0.79058743  0.83755879  0.34039206     0.14600
C1109       C  0.10875970  0.89222600  0.38481000     0.86400
C1110       C  0.08564411  0.85546711  0.35501519    -0.53900
C1111       C  0.11462744  0.82900078  0.32832328     0.09300
C1112       C  0.16484211  0.84549040  0.33172646     0.20200
C1113       C  0.14695804  0.86504853  0.40979454    -0.54600
C1114       C  0.17779305  0.84135408  0.38328719     0.09400
C1115       C  0.13532712  0.92267313  0.35039856    -0.54100
C1116       C  0.16329516  0.89860636  0.32079785     0.10000
H1117       H  0.04880375  0.85038106  0.35631520     0.14500
H1118       H  0.18652970  0.82697072  0.30824144     0.00200
H1119       H  0.14871260  0.86462263  0.44646602     0.14800
H1120       H  0.13161216  0.96038294  0.34959004     0.14600
C1121       C  0.11879780  0.89606937  0.57983815     0.86400
C1122       C  0.14963311  0.92158600  0.61378057    -0.53900
C1123       C  0.17180902  0.89292290  0.64624980     0.09300
C1124       C  0.16472947  0.84046990  0.63671261     0.20200
C1125       C  0.15015030  0.86243388  0.55713130    -0.54600
C1126       C  0.17679794  0.83516927  0.58574296     0.09400
C1127       C  0.08898117  0.86426908  0.61080245    -0.54100
C1128       C  0.11233881  0.83290362  0.63906525     0.10000
H1129       H  0.15093929  0.95948905  0.61380908     0.14500
H1130       H  0.18389913  0.81719776  0.65952517     0.00200
H1131       H  0.15179841  0.86135966  0.52051359     0.14800
H1132       H  0.05183546  0.86600541  0.60957261     0.14600
C1133       C  0.82797756  0.13953694  0.57886358     0.86400
C1134       C  0.86101550  0.17175189  0.60343173    -0.53900
C1135       C  0.89343602  0.14960883  0.62834941     0.09300
C1136       C  0.89358447  0.09613579  0.62389086     0.20200
C1137       C  0.85822223  0.10762855  0.54951967    -0.54600
C1138       C  0.89388824  0.08567580  0.57113842     0.09400
C1139       C  0.80997635  0.10622136  0.61587576    -0.54100
C1140       C  0.84421014  0.08512599  0.64182794     0.10000
H1141       H  0.85796204  0.20958293  0.60273765     0.14500
H1142       H  0.92237845  0.08010209  0.64320036     0.00200
H1143       H  0.85275182  0.10361450  0.51326471     0.14800
H1144       H  0.77380643  0.10203293  0.62309074     0.14600
C1145       C  0.88723517  0.88668976  0.57114830     0.86400
C1146       C  0.91815461  0.85991614  0.60604840    -0.53900
C1147       C  0.89704393  0.82766551  0.63387132     0.09300
C1148       C  0.84454755  0.82912313  0.62793619     0.20200
C1149       C  0.85944436  0.84878435  0.54811479    -0.54600
C1150       C  0.83745584  0.81757699  0.57722430     0.09400
C1151       C  0.85216917  0.91076705  0.60069979    -0.54100
C1152       C  0.83162077  0.88180954  0.63316677     0.10000
H1153       H  0.95494708  0.86516831  0.60787802     0.14500
H1154       H  0.82553889  0.80476707  0.65019376     0.00200
H1155       H  0.85987100  0.84544301  0.51136246     0.14800
H1156       H  0.84899915  0.94860701  0.60035660     0.14600
N1157       N  0.81458159  0.76477922  0.48028804    -0.36700
N1158       N  0.76845571  0.70595976  0.55412177    -0.57300
N1159       N  0.72127888  0.65975375  0.47977136    -0.36700
N1160       N  0.77650405  0.70831359  0.41080970    -0.57300
C1161       C  0.83833748  0.75758281  0.51905411     0.26900
C1162       C  0.84508616  0.76389494  0.44657178     0.26900
C1163       C  0.70544508  0.63535958  0.51636067     0.26900
C1164       C  0.71154760  0.63432497  0.44279448     0.26900
C1165       C  0.78240000  0.74524330  0.57530383     0.35500
C1166       C  0.72927222  0.69191953  0.57394767     0.35500
C1167       C  0.79682481  0.74218467  0.38485165     0.35500
C1168       C  0.74596794  0.68686949  0.38365364     0.35500
C1169       C  0.88405333  0.74995335  0.51032268    -0.22000
C1170       C  0.88826073  0.75272554  0.46374684    -0.22000
C1171       C  0.68627428  0.59359299  0.50266604    -0.22000
C1172       C  0.69017693  0.59293009  0.45604748    -0.22000
C1173       C  0.75224351  0.75575486  0.60938293    -0.23100
C1174       C  0.71848801  0.72197038  0.60808960    -0.23100
C1175       C  0.78052730  0.74083038  0.34072940    -0.23100
C1176       C  0.74821586  0.70615026  0.34025488    -0.23100
C1177       C  0.82068554  0.77116838  0.56014923    -0.18400
C1178       C  0.83204803  0.77123274  0.40135211    -0.18400
C1179       C  0.71642826  0.65000672  0.39733507    -0.18400
C1180       C  0.70324302  0.65276450  0.56064178    -0.18400
H1181       H  0.91093888  0.74266000  0.53497111     0.14500
H1182       H  0.91878809  0.74435086  0.44542539     0.14500
H1183       H  0.66996249  0.56709176  0.52386467     0.14500
H1184       H  0.67759910  0.56570814  0.43419756     0.14500
H1185       H  0.75294508  0.78524689  0.63116449     0.12800
H1186       H  0.68726953  0.72172649  0.62649906     0.12800
H1187       H  0.79113688  0.76137029  0.31168891     0.12800
H1188       H  0.72782265  0.69691476  0.31145673     0.12800
H1189       H  0.78013982  0.77477847  0.47734791     0.26000
H1190       H  0.73217075  0.69441769  0.47948030     0.26000
C1191       C  0.19488440  0.14875073  0.38103726     0.86400
C1192       C  0.16086774  0.18500334  0.36176138    -0.53900
C1193       C  0.12629996  0.16707344  0.33686708     0.09300
C1194       C  0.12407293  0.11286456  0.33914513     0.20200
C1195       C  0.16507054  0.11720236  0.41174390    -0.54600
C1196       C  0.12760837  0.09781429  0.39197429     0.09400
C1197       C  0.20767299  0.11771330  0.34214209    -0.54100
C1198       C  0.17149479  0.10144083  0.31733705     0.10000
H1199       H  0.16362029  0.22233356  0.36688946     0.14500
H1200       H  0.09375888  0.09881690  0.32111393     0.00200
H1201       H  0.17178951  0.11084938  0.44730391     0.14800
H1202       H  0.24323687  0.11148741  0.33345914     0.14600
C1203       C  0.18501263  0.15539745  0.58231079     0.86400
C1204       C  0.15244179  0.12618170  0.55179317    -0.53900
C1205       C  0.11838217  0.10159928  0.57357303     0.09300
C1206       C  0.12071647  0.11105966  0.62690371     0.20200
C1207       C  0.15204189  0.18771033  0.60613686    -0.54600
C1208       C  0.12017814  0.16512066  0.63113816     0.09400
C1209       C  0.20332722  0.12152191  0.61877097    -0.54100
C1210       C  0.17081735  0.09999796  0.64476573     0.10000
H1211       H  0.15435769  0.12737467  0.51522603     0.14500
H1212       H  0.09260375  0.09443367  0.64619422     0.00200
H1213       H  0.15281760  0.22560917  0.60319647     0.14800
H1214       H  0.23987238  0.11747732  0.62543005     0.14600
N1215       N  0.00799909  0.68395445  0.76912727    -0.36700
N1216       N  0.08099160  0.73181245  0.72277697    -0.57300
N1217       N  0.00645252  0.77895145  0.67360982    -0.36700
N1218       N  0.93404405  0.72814017  0.71501513    -0.57300
C1219       C  0.04602023  0.65740832  0.77342030     0.26900
C1220       C  0.97225779  0.65436028  0.76647322     0.26900
C1221       C  0.04415889  0.78031885  0.64743108     0.26900
C1222       C  0.96987174  0.78149474  0.64514089     0.26900
C1223       C  0.10393147  0.71604698  0.76054331     0.35500
C1224       C  0.10284706  0.76994301  0.70533779     0.35500
C1225       C  0.90990720  0.70788557  0.74885836     0.35500
C1226       C  0.90976715  0.76505678  0.69837025     0.35500
C1227       C  0.03486748  0.61056050  0.76947018    -0.22000
C1228       C  0.98781432  0.60864916  0.76484414    -0.22000
C1229       C  0.03153034  0.77945903  0.60176896    -0.22000
C1230       C  0.98438910  0.78082910  0.60032170    -0.22000
C1231       C  0.14180182  0.74482022  0.76679828    -0.23100
C1232       C  0.14045093  0.77938367  0.73270031    -0.23100
C1233       C  0.86851019  0.73161060  0.75303662    -0.23100
C1234       C  0.86942846  0.76907325  0.72241504    -0.23100
C1235       C  0.08875691  0.67570174  0.78661576    -0.18400
C1236       C  0.92701490  0.66858853  0.77437666    -0.18400
C1237       C  0.92506522  0.79139465  0.66014637    -0.18400
C1238       C  0.08747887  0.79350448  0.66455464    -0.18400
H1239       H  0.05790502  0.58092459  0.77217183     0.14500
H1240       H  0.96713919  0.57724602  0.76392167     0.14500
H1241       H  0.05397529  0.78228970  0.57267360     0.14500
H1242       H  0.96364511  0.78503652  0.56987145     0.14500
H1243       H  0.16743169  0.74317441  0.79309665     0.12800
H1244       H  0.16367194  0.80861713  0.73010996     0.12800
H1245       H  0.84027748  0.72387524  0.77545116     0.12800
H1246       H  0.84373378  0.79615694  0.71984780     0.12800
H1247       H  0.00597774  0.71980258  0.77493957     0.26000
H1248       H  0.00579253  0.78423375  0.70871536     0.26000
N1249       N  0.72958160  0.98882569  0.79278415    -0.36700
N1250       N  0.77983687  0.05891576  0.75128992    -0.57300
N1251       N  0.81825386  0.98245605  0.70010847    -0.36700
N1252       N  0.77074785  0.90750342  0.74503136    -0.57300
C1253       C  0.72571703  0.02456880  0.82108029     0.26900
C1254       C  0.72234874  0.95018775  0.81792813     0.26900
C1255       C  0.84847669  0.01766550  0.69624896     0.26900
C1256       C  0.84107759  0.94269027  0.69202257     0.26900
C1257       C  0.74615490  0.08595152  0.76862364     0.35500
C1258       C  0.79930491  0.08264569  0.71620442     0.35500
C1259       C  0.72809805  0.89466174  0.75732201     0.35500
C1260       C  0.77855681  0.89001776  0.70331772     0.35500
C1261       C  0.72129619  0.00843122  0.86571500    -0.22000
C1262       C  0.71798499  0.96076959  0.86356326    -0.22000
C1263       C  0.89195057  0.99981000  0.68880828    -0.22000
C1264       C  0.88725540  0.95207652  0.68629500    -0.22000
C1265       C  0.74673781  0.12895089  0.74605661    -0.23100
C1266       C  0.78007026  0.12678696  0.71302154    -0.23100
C1267       C  0.70845242  0.86866783  0.72328306    -0.23100
C1268       C  0.74045687  0.86573595  0.68876387    -0.23100
C1269       C  0.71661005  0.06957748  0.80445938    -0.18400
C1270       C  0.70725836  0.90990277  0.79772135    -0.18400
C1271       C  0.81782447  0.90251657  0.67795386    -0.18400
C1272       C  0.83374433  0.06355613  0.68775278    -0.18400
H1273       H  0.71616072  0.02890177  0.89577036     0.14500
H1274       H  0.70912235  0.93726592  0.89150073     0.14500
H1275       H  0.92371974  0.01851688  0.68455318     0.14500
H1276       H  0.91390652  0.92760030  0.67767336     0.14500
H1277       H  0.72601594  0.15895983  0.75181577     0.12800
H1278       H  0.78876298  0.15458392  0.68941995     0.12800
H1279       H  0.67300711  0.85914616  0.72074620     0.12800
H1280       H  0.73400450  0.85333314  0.65494330     0.12800
H1281       H  0.72657970  0.99104303  0.75726591     0.26000
H1282       H  0.78260988  0.98630006  0.69888877     0.26000
N1283       N  0.81137894  0.69489394  0.98162832    -0.36700
N1284       N  0.74449076  0.72808646  0.91275018    -0.57300
N1285       N  0.68376672  0.76135054  0.98139379    -0.36700
N1286       N  0.75643632  0.72330597  0.05248255    -0.57300
C1287       C  0.83551047  0.69170362  0.94341098     0.26900
C1288       C  0.84204323  0.69116860  0.01612865     0.26900
C1289       C  0.68538734  0.79124705  0.94556033     0.26900
C1290       C  0.69729403  0.78623221  0.01704322     0.26900
C1291       C  0.77213167  0.70186808  0.88691921     0.35500
C1292       C  0.70882217  0.74400131  0.88606450     0.35500
C1293       C  0.78829310  0.70153704  0.07875563     0.35500
C1294       C  0.72324012  0.74004737  0.07944340     0.35500
C1295       C  0.88214123  0.68778118  0.95342564    -0.22000
C1296       C  0.88622186  0.68739431  0.99971041    -0.22000
C1297       C  0.70278848  0.83422484  0.95775944    -0.22000
C1298       C  0.71080465  0.83096502  0.00334974    -0.22000
C1299       C  0.75390261  0.70093848  0.84342664    -0.23100
C1300       C  0.71386431  0.72714634  0.84274975    -0.23100
C1301       C  0.77506109  0.70438136  0.12357028    -0.23100
C1302       C  0.73371855  0.72858993  0.12436126    -0.23100
C1303       C  0.81572910  0.68343909  0.90113557    -0.18400
C1304       C  0.83048322  0.68437448  0.06157021    -0.18400
C1305       C  0.68969636  0.77173909  0.06191518    -0.18400
C1306       C  0.67687583  0.77830388  0.90120846    -0.18400
H1307       H  0.91009539  0.68291237  0.93003356     0.14500
H1308       H  0.91771960  0.68243271  0.01913362     0.14500
H1309       H  0.70990101  0.86442801  0.93623159     0.14500
H1310       H  0.72352793  0.85906343  0.02388483     0.14500
H1311       H  0.76992046  0.68602821  0.81468138     0.12800
H1312       H  0.69212037  0.73352162  0.81358073     0.12800
H1313       H  0.79515097  0.69449689  0.15252874     0.12800
H1314       H  0.71575754  0.73914649  0.15445207     0.12800
H1315       H  0.77597893  0.69027151  0.98346038     0.26000
H1316       H  0.67107011  0.72716358  0.98190485     0.26000
loop_ 
_geom_bond_atom_site_label_1 
_geom_bond_atom_site_label_2 
_geom_bond_distance 
_geom_bond_site_symmetry_2 
_ccdc_geom_bond_type 
C1            C2   1.511       .  S
C1            C7   1.553       .  S
C1            C5   1.526       .  S
C1          C487   1.516       .  S
C2            H9   1.087       .  S
C2            C3   1.361       .  D
C3            C4   1.554       .  S
C3          C885   1.499       .  S
C4            C8   1.568       .  S
C4            C6   1.546       .  S
C4           H10   1.106       .  S
C5           H11   1.084       .  S
C5            C6   1.344       .  D
C6         C1044   1.464       .  S
C7           H12   1.085       .  S
C7            C8   1.371       .  D
C8           C21   1.514       .  S
O13          C21   1.277       .  A
O13         Co33   1.929       .  S
O14          C22   1.259       .  A
O14         Co34   1.982       .  S
O15          C23   1.275       .  A
O15         Co35   2.014       .  S
O16          C24   1.287       .  A
O16         Co36   2.052       .  S
O17          C23   1.250       .  A
O17         Co34   1.971       .  S
O18          C24   1.269       .  A
O18         Co33   2.016       .  S
O19          C22   1.279       .  A
O19         Co36   2.044       .  S
O20          C21   1.298       .  A
O20         Co35   2.115       .  S
C22          C71   1.506       .  S
C23         C119   1.481       .  S
C24          C80   1.531       .  S
O25          C38   1.283       .  A
O25         Co33   2.102       .  S
O26          C39   1.285       .  A
O26         Co34   2.058       .  S
O27          C40   1.272       .  A
O27         Co35   1.938       .  S
O28          C41   1.249       .  A
O28         Co36   1.946       .  S
O29          C41   1.275       .  A
O29         Co34   2.063       .  S
O30          C40   1.303       .  A
O30         Co33   2.126       .  S
O31          C38   1.241       .  A
O31         Co36   1.944       .  S
O32          C39   1.277       .  A
O32         Co35   2.020       .  S
Co33         O37   2.087       .  S
Co34         O37   2.086       .  S
Co35         O37   2.041       .  S
Co36         O37   2.018       .  S
C38          C54   1.554       .  S
C39          C42   1.567       .  S
C40         C109   1.521       .  S
C41          C90   1.530       .  S
C42          C43   1.541       .  S
C42          C48   1.532       .  S
C42          C46   1.530       .  S
C43          H50   1.079       .  S
C43          C44   1.404       .  D
C44          C45   1.528       .  S
C44         C749   1.529       .  S
C45          C49   1.526       .  S
C45          C47   1.523       .  S
C45          H51   1.090       .  S
C46          H52   1.087       .  S
C46          C47   1.368       .  D
C47         C622   1.464       .  S
C48          H53   1.083       .  S
C48          C49   1.383       .  D
C49        C1010   1.488       .  S
C54          C55   1.571       .  S
C54          C60   1.516       .  S
C54          C58   1.508       .  S
C55          H62   1.082       .  S
C55          C56   1.384       .  D
C56          C57   1.521       .  S
C56         C251   1.520       .  S
C57          C61   1.527       .  S
C57          C59   1.545       .  S
C57          H63   1.080       .  S
C58          H64   1.066       .  S
C58          C59   1.380       .  D
C59         C317   1.507       .  S
C60          H65   1.086       .  S
C60          C61   1.380       .  D
C61         C285   1.485       .  S
C66          C67   1.540       .  S
C66          C72   1.516       .  S
C66          C70   1.554       .  S
C66         C453   1.539       .  S
C67          H74   1.085       .  S
C67          C68   1.368       .  D
C68          C69   1.540       .  S
C68        C1179   1.479       .  S
C69          C73   1.548       .  S
C69          C71   1.547       .  S
C69          H75   1.111       .  S
C70          H76   1.069       .  S
C70          C71   1.359       .  D
C72          H77   1.088       .  S
C72          C73   1.358       .  D
C73         C716   1.477       .  S
C78          C79   1.534       .  S
C78          C84   1.512       .  S
C78          C82   1.519       .  S
C78         C316   1.504       .  S
C79          H86   1.066       .  S
C79          C80   1.354       .  D
C80          C81   1.577       .  S
C81          C85   1.554       .  S
C81          C83   1.547       .  S
C81          H87   1.110       .  S
C82          H88   1.084       .  S
C82          C83   1.353       .  D
C83        C1045   1.462       .  S
C84          H89   1.088       .  S
C84          C85   1.357       .  D
C85         C715   1.475       .  S
C90          C91   1.516       .  S
C90          C96   1.540       .  S
C90          C94   1.522       .  S
C91          H98   1.076       .  S
C91          C92   1.383       .  D
C92          C93   1.534       .  S
C92        C1011   1.505       .  S
C93          C97   1.522       .  S
C93          C95   1.527       .  S
C93          H99   1.075       .  S
C94         H100   1.077       .  S
C94          C95   1.371       .  D
C95         C452   1.482       .  S
C96         H101   1.083       .  S
C96          C97   1.377       .  D
C97         C250   1.501       .  S
C102        C103   1.522       .  S
C102        C108   1.551       .  S
C102        C106   1.537       .  S
C102        C284   1.527       .  S
C103        H110   1.087       .  S
C103        C104   1.350       .  D
C104        C105   1.520       .  S
C104        C750   1.456       .  S
C105        C109   1.557       .  S
C105        C107   1.560       .  S
C105        H111   1.097       .  S
C106        H112   1.081       .  S
C106        C107   1.372       .  D
C107        C486   1.509       .  S
C108        H113   1.086       .  S
C108        C109   1.364       .  D
C114        C115   1.517       .  S
C114        C120   1.544       .  S
C114        C118   1.530       .  S
C114        C621   1.516       .  S
C115        H122   1.086       .  S
C115        C116   1.364       .  D
C116        C117   1.552       .  S
C116        C884   1.490       .  S
C117        C121   1.532       .  S
C117        C119   1.560       .  S
C117        H123   1.102       .  S
C118        H124   1.075       .  S
C118        C119   1.350       .  D
C120        H125   1.086       .  S
C120        C121   1.358       .  D
C121       C1180   1.486       .  S
N126        C131   1.342   1_556  A
N126        C130   1.336       .  A
N126        H158   1.044       .  S
N127        C134   1.360       .  A
N127        C135   1.359       .  A
N128        C133   1.347   1_556  A
N128        C132   1.344       .  A
N128        H159   1.038       .  S
N129        C136   1.356       .  A
N129        C137   1.356       .  A
C130        C138   1.386       .  A
C130        C146   1.384       .  A
C131        C147   1.379       .  A
C131        C139   1.383       .  A
C132        C140   1.389       .  A
C132        C149   1.395       .  A
C133        C148   1.395       .  A
C133        C141   1.386       .  A
C134        C146   1.433       .  A
C134        C142   1.379       .  A
C135        C149   1.434       .  A
C135        C143   1.385       .  A
C136        C144   1.380       .  A
C136        C147   1.432       .  A
C137        C145   1.378       .  A
C137        C148   1.421       .  A
C138        C139   1.365   1_556  A
C138        H150   1.082       .  S
C139        H151   1.078       .  S
C140        C141   1.357   1_556  A
C140        H152   1.082       .  S
C141        H153   1.082       .  S
C142        C143   1.382       .  A
C142        H154   1.069       .  S
C143        H155   1.079       .  S
C144        C145   1.370       .  A
C144        H156   1.068       .  S
C145        H157   1.071       .  S
C146        C560   1.485       .  S
C147        C649   1.500       .  S
C148        C903   1.482       .  S
C149        C833   1.485       .  S
N160        C165   1.341   1_545  A
N160        C164   1.342       .  A
N160        H192   1.046       .  S
N161        C168   1.352       .  A
N161        C169   1.355       .  A
N162        C167   1.336   1_545  A
N162        C166   1.339       .  A
N162        H193   1.045       .  S
N163        C170   1.358       .  A
N163        C171   1.353       .  A
C164        C172   1.383       .  A
C164        C180   1.389       .  A
C165        C181   1.403       .  A
C165        C173   1.389       .  A
C166        C174   1.385       .  A
C166        C183   1.385       .  A
C167        C182   1.382       .  A
C167        C175   1.385       .  A
C168        C180   1.431       .  A
C168        C176   1.389       .  A
C169        C183   1.419       .  A
C169        C177   1.382       .  A
C170        C178   1.386       .  A
C170        C181   1.430       .  A
C171        C179   1.382       .  A
C171        C182   1.429       .  A
C172        C173   1.379   1_545  A
C172        H184   1.080       .  S
C173        H185   1.083       .  S
C174        C175   1.369   1_545  A
C174        H186   1.077       .  S
C175        H187   1.082       .  S
C176        C177   1.369       .  A
C176        H188   1.076       .  S
C177        H189   1.077       .  S
C178        C179   1.394       .  A
C178        H190   1.080       .  S
C179        H191   1.073       .  S
C180       C1198   1.506       .  S
C181       C1116   1.518       .  S
C182        C855   1.483       .  S
C183        C898   1.500       .  S
N194        C199   1.344       .  A
N194        C198   1.338   1_455  A
N194        H226   1.027       .  S
N195        C202   1.346       .  A
N195        C203   1.352       .  A
N196        C201   1.340       .  A
N196        C200   1.346   1_455  A
N196        H227   1.018       .  S
N197        C204   1.362       .  A
N197        C205   1.358       .  A
C198        C206   1.388       .  A
C198        C214   1.385       .  A
C199        C215   1.385       .  A
C199        C207   1.385       .  A
C200        C208   1.390       .  A
C200        C217   1.395       .  A
C201        C216   1.378       .  A
C201        C209   1.379       .  A
C202        C214   1.410       .  A
C202        C210   1.385       .  A
C203        C217   1.413       .  A
C203        C211   1.383       .  A
C204        C212   1.376       .  A
C204        C215   1.427       .  A
C205        C213   1.374       .  A
C205        C216   1.427       .  A
C206        C207   1.366   1_655  A
C206        H218   1.081       .  S
C207        H219   1.082       .  S
C208        C209   1.364   1_655  A
C208        H220   1.070       .  S
C209        H221   1.083       .  S
C210        C211   1.372       .  A
C210        H222   1.078       .  S
C211        H223   1.079       .  S
C212        C213   1.382       .  A
C212        H224   1.071       .  S
C213        H225   1.064       .  S
C214        C543   1.450       .  S
C215        C654   1.493       .  S
C216       C1193   1.485       .  S
C217       C1061   1.485       .  S
N228        C233   1.337       .  A
N228        C232   1.339       .  A
N228        H260   1.046       .  S
N229        C236   1.357       .  A
N229        C237   1.352       .  A
N230        C235   1.341       .  A
N230        C234   1.342       .  A
N230        H261   1.046       .  S
N231        C238   1.347       .  A
N231        C239   1.345       .  A
C232        C240   1.386       .  A
C232        C248   1.395       .  A
C233        C249   1.398       .  A
C233        C241   1.387       .  A
C234        C242   1.385       .  A
C234        C251   1.399       .  A
C235        C250   1.400       .  A
C235        C243   1.385       .  A
C236        C248   1.431       .  A
C236        C244   1.387       .  A
C237        C251   1.427       .  A
C237        C245   1.378       .  A
C238        C246   1.390       .  A
C238        C249   1.425       .  A
C239        C247   1.386       .  A
C239        C250   1.420       .  A
C240        C241   1.379       .  A
C240        H252   1.083       .  S
C241        H253   1.081       .  S
C242        C243   1.376       .  A
C242        H254   1.073       .  S
C243        H255   1.083       .  S
C244        C245   1.381       .  A
C244        H256   1.068       .  S
C245        H257   1.073       .  S
C246        C247   1.381       .  A
C246        H258   1.074       .  S
C247        H259   1.072       .  S
C248        C896   1.554       .  S
C249        C908   1.527       .  S
N262        C267   1.339       .  A
N262        C266   1.343       .  A
N262        H294   1.046       .  S
N263        C270   1.338       .  A
N263        C271   1.341       .  A
N264        C269   1.337       .  A
N264        C268   1.332       .  A
N264        H295   1.046       .  S
N265        C272   1.342       .  A
N265        C273   1.353       .  A
C266        C274   1.385       .  A
C266        C282   1.396       .  A
C267        C283   1.393       .  A
C267        C275   1.386       .  A
C268        C276   1.375       .  A
C268        C285   1.375       .  A
C269        C284   1.392       .  A
C269        C277   1.389       .  A
C270        C282   1.418       .  A
C270        C278   1.395       .  A
C271        C285   1.394       .  A
C271        C279   1.375       .  A
C272        C280   1.383       .  A
C272        C283   1.421       .  A
C273        C281   1.379       .  A
C273        C284   1.422       .  A
C274        C275   1.377       .  A
C274        H286   1.082       .  S
C275        H287   1.082       .  S
C276        C277   1.361       .  A
C276        H288   1.070       .  S
C277        H289   1.080       .  S
C278        C279   1.384       .  A
C278        H290   1.078       .  S
C279        H291   1.075       .  S
C280        C281   1.376       .  A
C280        H292   1.071       .  S
C281        H293   1.060       .  S
C282       C1191   1.524       .  S
C283       C1203   1.525       .  S
N296        C301   1.342       .  A
N296        C300   1.338       .  A
N296        H328   1.046       .  S
N297        C304   1.328       .  A
N297        C305   1.337       .  A
N298        C303   1.333       .  A
N298        C302   1.337       .  A
N298        H329   1.046       .  S
N299        C306   1.342       .  A
N299        C307   1.334       .  A
C300        C308   1.391       .  A
C300        C316   1.406       .  A
C301        C317   1.400       .  A
C301        C309   1.384       .  A
C302        C310   1.383       .  A
C302        C319   1.392       .  A
C303        C318   1.390       .  A
C303        C311   1.389       .  A
C304        C316   1.406       .  A
C304        C312   1.393       .  A
C305        C319   1.385       .  A
C305        C313   1.376       .  A
C306        C314   1.388       .  A
C306        C317   1.413       .  A
C307        C315   1.379       .  A
C307        C318   1.401       .  A
C308        C309   1.381       .  A
C308        H320   1.082       .  S
C309        H321   1.082       .  S
C310        C311   1.380       .  A
C310        H322   1.082       .  S
C311        H323   1.083       .  S
C312        C313   1.377       .  A
C312        H324   1.065       .  S
C313        H325   1.081       .  S
C314        C315   1.374       .  A
C314        H326   1.061       .  S
C315        H327   1.074       .  S
C318        C647   1.511       .  S
C319        C640   1.467       .  S
N330        C335   1.341       .  A
N330        C334   1.338   1_556  A
N330        H362   1.046       .  S
N331        C338   1.356       .  A
N331        C339   1.360       .  A
N332        C337   1.335       .  A
N332        C336   1.341   1_556  A
N332        H363   1.046       .  S
N333        C340   1.339       .  A
N333        C341   1.343       .  A
C334        C342   1.387       .  A
C334        C350   1.387       .  A
C335        C351   1.378       .  A
C335        C343   1.382       .  A
C336        C344   1.385       .  A
C336        C353   1.387       .  A
C337        C352   1.380       .  A
C337        C345   1.387       .  A
C338        C350   1.433       .  A
C338        C346   1.382       .  A
C339        C353   1.440       .  A
C339        C347   1.391       .  A
C340        C348   1.380       .  A
C340        C351   1.396       .  A
C341        C349   1.377       .  A
C341        C352   1.400       .  A
C342        C343   1.367   1_554  A
C342        H354   1.082       .  S
C343        H355   1.081       .  S
C344        C345   1.367   1_554  A
C344        H356   1.083       .  S
C345        H357   1.083       .  S
C346        C347   1.392       .  A
C346        H358   1.072       .  S
C347        H359   1.075       .  S
C348        C349   1.379       .  A
C348        H360   1.071       .  S
C349        H361   1.069       .  S
C350        C850   1.544       .  S
C351        C819   1.474       .  S
C352        C567   1.477       .  S
C353        C637   1.523       .  S
N364        C369   1.347   1_556  A
N364        C368   1.346       .  A
N364        H396   1.044       .  S
N365        C372   1.351       .  A
N365        C373   1.356       .  A
N366        C371   1.336   1_556  A
N366        C370   1.338       .  A
N366        H397   1.045       .  S
N367        C374   1.356       .  A
N367        C375   1.359       .  A
C368        C376   1.378       .  A
C368        C384   1.385       .  A
C369        C385   1.399       .  A
C369        C377   1.388       .  A
C370        C378   1.385       .  A
C370        C387   1.383       .  A
C371        C386   1.379       .  A
C371        C379   1.383       .  A
C372        C384   1.410       .  A
C372        C380   1.377       .  A
C373        C387   1.428       .  A
C373        C381   1.387       .  A
C374        C382   1.382       .  A
C374        C385   1.425       .  A
C375        C383   1.379       .  A
C375        C386   1.426       .  A
C376        C377   1.360   1_556  A
C376        H388   1.080       .  S
C377        H389   1.075       .  S
C378        C379   1.365   1_556  A
C378        H390   1.072       .  S
C379        H391   1.082       .  S
C380        C381   1.376       .  A
C380        H392   1.075       .  S
C381        H393   1.075       .  S
C382        C383   1.384       .  A
C382        H394   1.076       .  S
C383        H395   1.070       .  S
C384        C584   1.477       .  S
C385        C548   1.488       .  S
C386        C910   1.485       .  S
C387        C766   1.498       .  S
N398        C403   1.332       .  A
N398        C402   1.336   1_455  A
N398        H430   1.046   1_455  S
N399        C406   1.351       .  A
N399        C407   1.345       .  A
N400        C405   1.341       .  A
N400        C404   1.345   1_455  A
N400        H431   1.041       .  S
N401        C408   1.357       .  A
N401        C409   1.348       .  A
C402        C410   1.377       .  A
C402        C418   1.365       .  A
C403        C419   1.392       .  A
C403        C411   1.392       .  A
C404        C412   1.389       .  A
C404        C421   1.392       .  A
C405        C420   1.382       .  A
C405        C413   1.383       .  A
C406        C418   1.417       .  A
C406        C414   1.383       .  A
C407        C421   1.420       .  A
C407        C415   1.390       .  A
C408        C416   1.380       .  A
C408        C419   1.413       .  A
C409        C417   1.375       .  A
C409        C420   1.415       .  A
C410        C411   1.367   1_655  A
C410        H422   1.081       .  S
C411        H423   1.080       .  S
C412        C413   1.358   1_655  A
C412        H424   1.082       .  S
C413        H425   1.081       .  S
C414        C415   1.380       .  A
C414        H426   1.080       .  S
C415        H427   1.077       .  S
C416        C417   1.373       .  A
C416        H428   1.074       .  S
C417        H429   1.063       .  S
C418        C582   1.492       .  S
C419        C553   1.519       .  S
C420       C1208   1.472       .  S
C421       C1135   1.470       .  S
N432        C437   1.334       .  A
N432        C436   1.336       .  A
N432        H464   1.046       .  S
N433        C440   1.341       .  A
N433        C441   1.335       .  A
N434        C439   1.338       .  A
N434        C438   1.329       .  A
N434        H465   1.046       .  S
N435        C442   1.348       .  A
N435        C443   1.352       .  A
C436        C444   1.384       .  A
C436        C452   1.394       .  A
C437        C453   1.396       .  A
C437        C445   1.389       .  A
C438        C446   1.390       .  A
C438        C455   1.394       .  A
C439        C454   1.382       .  A
C439        C447   1.383       .  A
C440        C452   1.402       .  A
C440        C448   1.382       .  A
C441        C455   1.413       .  A
C441        C449   1.391       .  A
C442        C450   1.377       .  A
C442        C453   1.416       .  A
C443        C451   1.378       .  A
C443        C454   1.420       .  A
C444        C445   1.385       .  A
C444        H456   1.082       .  S
C445        H457   1.083       .  S
C446        C447   1.375       .  A
C446        H458   1.082       .  S
C447        H459   1.078       .  S
C448        C449   1.374       .  A
C448        H460   1.076       .  S
C449        H461   1.071       .  S
C450        C451   1.370       .  A
C450        H462   1.061       .  S
C451        H463   1.068       .  S
C454        C596   1.500       .  S
C455        C541   1.496       .  S
N466        C471   1.332       .  A
N466        C470   1.334       .  A
N466        H498   1.046       .  S
N467        C474   1.353       .  A
N467        C475   1.352       .  A
N468        C473   1.338       .  A
N468        C472   1.340       .  A
N468        H499   1.046       .  S
N469        C476   1.347       .  A
N469        C477   1.345       .  A
C470        C478   1.386       .  A
C470        C486   1.379       .  A
C471        C487   1.373       .  A
C471        C479   1.380       .  A
C472        C480   1.382       .  A
C472        C489   1.385       .  A
C473        C488   1.387       .  A
C473        C481   1.385       .  A
C474        C486   1.421       .  A
C474        C482   1.375       .  A
C475        C489   1.420       .  A
C475        C483   1.382       .  A
C476        C484   1.383       .  A
C476        C487   1.415       .  A
C477        C485   1.384       .  A
C477        C488   1.407       .  A
C478        C479   1.375       .  A
C478        H490   1.080       .  S
C479        H491   1.082       .  S
C480        C481   1.373       .  A
C480        H492   1.079       .  S
C481        H493   1.079       .  S
C482        C483   1.377       .  A
C482        H494   1.067       .  S
C483        H495   1.069       .  S
C484        C485   1.371       .  A
C484        H496   1.072       .  S
C485        H497   1.075       .  S
C488        C570   1.479       .  S
C489        C558   1.497       .  S
C500        C501   1.522       .  S
C500        C506   1.550       .  S
C500        C504   1.523       .  S
C500       C1236   1.532       .  S
C501        H508   1.086       .  S
C501        C502   1.362       .  D
C502        C503   1.533       .  S
C502        C624   1.461       .  S
C503        C507   1.572       .  S
C503        C505   1.550       .  S
C503        H509   1.107       .  S
C504        H510   1.086       .  S
C504        C505   1.351       .  D
C505       C1303   1.472       .  S
C506        H511   1.081       .  S
C506        C507   1.376       .  D
C507        C520   1.544       .  S
O512        C520   1.252       .  A
O512       Co532   1.968   1_655  S
O513        C521   1.280       .  A
O513       Co533   1.951       .  S
O514        C522   1.289       .  A
O514       Co534   2.108   1_554  S
O515        C523   1.283       .  A
O515       Co535   2.104       .  S
O516        C522   1.278       .  A
O516       Co533   2.026   1_655  S
O517        C523   1.246       .  A
O517       Co532   1.963       .  S
O518        C521   1.301       .  A
O518       Co535   2.127   1_554  S
O519        C520   1.281       .  A
O519       Co534   2.105       .  S
C521        C635   1.574       .  S
C522        C591   1.569       .  S
C523        C572   1.537       .  S
O524        C537   1.286       .  A
O524       Co532   2.086       .  S
O525        C538   1.280       .  A
O525       Co533   2.065   1_655  S
O526        C539   1.263       .  A
O526       Co534   2.019       .  S
O527        C540   1.282       .  A
O527       Co535   1.938   1_554  S
O528        C540   1.303       .  A
O528       Co533   2.147       .  S
O529        C539   1.283       .  A
O529       Co532   2.058   1_655  S
O530        C537   1.272       .  A
O530       Co535   2.028       .  S
O531        C538   1.254       .  A
O531       Co534   1.992   1_554  S
Co532       O536   2.071       .  S
Co533       O536   2.082   1_554  S
Co534       O536   2.135   1_655  S
Co535       O536   2.116       .  S
C537        C555   1.557       .  S
C538        C546   1.516       .  S
C539        C579   1.535       .  S
C540        C652   1.548       .  S
C541        C542   1.509       .  S
C541        C547   1.510       .  S
C541        C545   1.555       .  S
C542        H549   1.084       .  S
C542        C543   1.350       .  D
C543        C544   1.551       .  S
C544        C548   1.561       .  S
C544        C546   1.573       .  S
C544        H550   1.110       .  S
C545        H551   1.085       .  S
C545        C546   1.363       .  D
C547        H552   1.090       .  S
C547        C548   1.342       .  D
C553        C554   1.557       .  S
C553        C559   1.518       .  S
C553        C557   1.533       .  S
C554        H561   1.087       .  S
C554        C555   1.362       .  D
C555        C556   1.590       .  S
C556        C560   1.556       .  S
C556        C558   1.562       .  S
C556        H562   1.100       .  S
C557        H563   1.085       .  S
C557        C558   1.374       .  D
C559        H564   1.088       .  S
C559        C560   1.343       .  D
C565        C566   1.535       .  S
C565        C571   1.564       .  S
C565        C569   1.530       .  S
C565       C1235   1.561       .  S
C566        H573   1.081       .  S
C566        C567   1.365       .  D
C567        C568   1.539       .  S
C568        C572   1.543       .  S
C568        C570   1.532       .  S
C568        H574   1.096       .  S
C569        H575   1.086       .  S
C569        C570   1.368       .  D
C571        H576   1.084       .  S
C571        C572   1.381       .  D
C577        C578   1.540       .  S
C577        C583   1.534       .  S
C577        C581   1.518       .  S
C577        C623   1.507       .  S
C578        H585   1.088       .  S
C578        C579   1.348       .  D
C579        C580   1.587       .  S
C580        C584   1.535       .  S
C580        C582   1.576       .  S
C580        H586   1.104       .  S
C581        H587   1.075       .  S
C581        C582   1.367       .  D
C583        H588   1.088       .  S
C583        C584   1.344       .  D
C589        C590   1.568       .  S
C589        C595   1.532       .  S
C589        C593   1.538       .  S
C589        C941   1.558       .  S
C590        H597   1.080       .  S
C590        C591   1.379       .  D
C591        C592   1.584       .  S
C592        C596   1.543       .  S
C592        C594   1.544       .  S
C592        H598   1.105       .  S
C593        H599   1.085       .  S
C593        C594   1.356       .  D
C594       C1304   1.484       .  S
C595        H600   1.085       .  S
C595        C596   1.370       .  D
N601        C606   1.336       .  A
N601        C605   1.338       .  A
N601        H633   1.046       .  S
N602        C609   1.338       .  A
N602        C610   1.338       .  A
N603        C608   1.341       .  A
N603        C607   1.345       .  A
N603        H634   1.045       .  S
N604        C611   1.334       .  A
N604        C612   1.333       .  A
C605        C613   1.383       .  A
C605        C621   1.390       .  A
C606        C622   1.397       .  A
C606        C614   1.386       .  A
C607        C615   1.371       .  A
C607        C624   1.374       .  A
C608        C623   1.430       .  A
C608        C616   1.403       .  A
C609        C621   1.401       .  A
C609        C617   1.387       .  A
C610        C624   1.392       .  A
C610        C618   1.383       .  A
C611        C619   1.378       .  A
C611        C622   1.393       .  A
C612        C620   1.398       .  A
C612        C623   1.414       .  A
C613        C614   1.378       .  A
C613        H625   1.082       .  S
C614        H626   1.076       .  S
C615        C616   1.361       .  A
C615        H627   1.080       .  S
C616        H628   1.076       .  S
C617        C618   1.371       .  A
C617        H629   1.074       .  S
C618        H630   1.079       .  S
C619        C620   1.386       .  A
C619        H631   1.082       .  S
C620        H632   1.069       .  S
C635        C636   1.546       .  S
C635        C641   1.536       .  S
C635        C639   1.525       .  S
C636        H643   1.080       .  S
C636        C637   1.404       .  D
C637        C638   1.529       .  S
C638        C642   1.525       .  S
C638        C640   1.522       .  S
C638        H644   1.090       .  S
C639        H645   1.085       .  S
C639        C640   1.368       .  D
C641        H646   1.082       .  S
C641        C642   1.393       .  D
C642        C940   1.516       .  S
C647        C648   1.504       .  S
C647        C653   1.534       .  S
C647        C651   1.535       .  S
C648        H655   1.088       .  S
C648        C649   1.354       .  D
C649        C650   1.573       .  S
C650        C654   1.564       .  S
C650        C652   1.602       .  S
C650        H656   1.102       .  S
C651        H657   1.077       .  S
C651        C652   1.348       .  D
C653        H658   1.086       .  S
C653        C654   1.359       .  D
N659        C664   1.343   1_565  A
N659        C663   1.338       .  A
N659        H691   1.046       .  S
N660        C667   1.367       .  A
N660        C668   1.356       .  A
N661        C666   1.346   1_565  A
N661        C665   1.346       .  A
N661        H692   1.043       .  S
N662        C669   1.362       .  A
N662        C670   1.357       .  A
C663        C671   1.388       .  A
C663        C679   1.394       .  A
C664        C680   1.389       .  A
C664        C672   1.383       .  A
C665        C673   1.391       .  A
C665        C682   1.388       .  A
C666        C681   1.384       .  A
C666        C674   1.385       .  A
C667        C679   1.433       .  A
C667        C675   1.383       .  A
C668        C682   1.442       .  A
C668        C676   1.389       .  A
C669        C677   1.381       .  A
C669        C680   1.437       .  A
C670        C678   1.378       .  A
C670        C681   1.425       .  A
C671        C672   1.375   1_565  A
C671        H683   1.083       .  S
C672        H684   1.077       .  S
C673        C674   1.332   1_565  A
C673        H685   1.080       .  S
C674        H686   1.079       .  S
C675        C676   1.381       .  A
C675        H687   1.075       .  S
C676        H688   1.073       .  S
C677        C678   1.375       .  A
C677        H689   1.069       .  S
C678        H690   1.069       .  S
C679       C1123   1.526       .  S
C680       C1210   1.519       .  S
C681        C831   1.488       .  S
C682        C821   1.488       .  S
N693        C698   1.339       .  A
N693        C697   1.339       .  A
N693        H725   1.046       .  S
N694        C701   1.349       .  A
N694        C702   1.349       .  A
N695        C700   1.345       .  A
N695        C699   1.348       .  A
N695        H726   1.045       .  S
N696        C703   1.355       .  A
N696        C704   1.354       .  A
C697        C705   1.382       .  A
C697        C713   1.382       .  A
C698        C714   1.381       .  A
C698        C706   1.384       .  A
C699        C707   1.384       .  A
C699        C716   1.391       .  A
C700        C715   1.386       .  A
C700        C708   1.384       .  A
C701        C713   1.397       .  A
C701        C709   1.370       .  A
C702        C716   1.403       .  A
C702        C710   1.378       .  A
C703        C711   1.375       .  A
C703        C714   1.409       .  A
C704        C712   1.383       .  A
C704        C715   1.414       .  A
C705        C706   1.366       .  A
C705        H717   1.077       .  S
C706        H718   1.076       .  S
C707        C708   1.341       .  A
C707        H719   1.073       .  S
C708        H720   1.079       .  S
C709        C710   1.366       .  A
C709        H721   1.064       .  S
C710        H722   1.067       .  S
C711        C712   1.362       .  A
C711        H723   1.077       .  S
C712        H724   1.066       .  S
C713        C809   1.484       .  S
C714        C852   1.483       .  S
N727        C732   1.339       .  A
N727        C731   1.336       .  A
N727        H759   1.046       .  S
N728        C735   1.336       .  A
N728        C736   1.335       .  A
N729        C734   1.338       .  A
N729        C733   1.331       .  A
N729        H760   1.047       .  S
N730        C737   1.349       .  A
N730        C738   1.355       .  A
C731        C739   1.387       .  A
C731        C747   1.392       .  A
C732        C748   1.379       .  A
C732        C740   1.380       .  A
C733        C741   1.385       .  A
C733        C750   1.373       .  A
C734        C749   1.391       .  A
C734        C742   1.387       .  A
C735        C747   1.394       .  A
C735        C743   1.384       .  A
C736        C750   1.388       .  A
C736        C744   1.379       .  A
C737        C745   1.381       .  A
C737        C748   1.429       .  A
C738        C746   1.394       .  A
C738        C749   1.442       .  A
C739        C740   1.368       .  A
C739        H751   1.081       .  S
C740        H752   1.078       .  S
C741        C742   1.373       .  A
C741        H753   1.082       .  S
C742        H754   1.083       .  S
C743        C744   1.367       .  A
C743        H755   1.067       .  S
C744        H756   1.076       .  S
C745        C746   1.397       .  A
C745        H757   1.071       .  S
C746        H758   1.074       .  S
C747        C826   1.493       .  S
C748        C763   1.510       .  S
C761        C762   1.541       .  S
C761        C767   1.573       .  S
C761        C765   1.517       .  S
C761       C1269   1.550       .  S
C762        H769   1.083       .  S
C762        C763   1.365       .  D
C763        C764   1.564       .  S
C764        C768   1.589       .  S
C764        C766   1.549       .  S
C764        H770   1.081       .  S
C765        H771   1.087       .  S
C765        C766   1.356       .  D
C767        H772   1.084       .  S
C767        C768   1.376       .  D
C768        C800   1.586       .  S
O773        C781   1.259       .  A
O773       Co793   2.022       .  S
O774        C782   1.280       .  A
O774       Co794   2.041   1_554  S
O775        C783   1.304       .  A
O775       Co795   2.143       .  S
O776        C784   1.273       .  A
O776       Co796   2.041   1_545  S
O777        C783   1.283       .  A
O777       Co794   1.978       .  S
O778        C784   1.264       .  A
O778       Co793   2.026   1_554  S
O779        C782   1.289       .  A
O779       Co796   2.110       .  S
O780        C781   1.292       .  A
O780       Co795   2.094   1_545  S
C781        C828   1.554       .  S
C782        C857   1.583       .  S
C783        C816   1.564       .  S
C784        C901   1.535       .  S
O785        C798   1.291       .  A
O785       Co793   2.102   1_554  S
O786        C799   1.311       .  A
O786       Co794   2.144       .  S
O787        C800   1.281       .  A
O787       Co795   2.033   1_545  S
O788        C801   1.256       .  A
O788       Co796   1.986       .  S
O789        C801   1.297       .  A
O789       Co794   2.116   1_554  S
O790        C800   1.292       .  A
O790       Co793   2.120       .  S
O791        C798   1.270       .  A
O791       Co796   2.033   1_545  S
O792        C799   1.283       .  A
O792       Co795   1.999       .  S
Co793       O797   2.149       .  S
Co794       O797   2.121   1_565  S
Co795       O797   2.141   1_565  S
Co796       O797   2.166   1_564  S
C798        C913   1.567       .  S
C799        C845   1.581       .  S
C801        C804   1.558       .  S
C802        C803   1.575       .  S
C802        C808   1.538       .  S
C802        C806   1.520       .  S
C802       C1305   1.530       .  S
C803        H810   1.086       .  S
C803        C804   1.357       .  D
C804        C805   1.586       .  S
C805        C809   1.546       .  S
C805        C807   1.559       .  S
C805        H811   1.099       .  S
C806        H812   1.088       .  S
C806        C807   1.335       .  D
C807        C975   1.499       .  S
C808        H813   1.085       .  S
C808        C809   1.385       .  D
C814        C815   1.557       .  S
C814        C820   1.500       .  S
C814        C818   1.534       .  S
C814        C882   1.510       .  S
C815        H822   1.087       .  S
C815        C816   1.360       .  D
C816        C817   1.596       .  S
C817        C821   1.567       .  S
C817        C819   1.548       .  S
C817        H823   1.100       .  S
C818        H824   1.085       .  S
C818        C819   1.378       .  D
C820        H825   1.089       .  S
C820        C821   1.332       .  D
C826        C827   1.544       .  S
C826        C832   1.522       .  S
C826        C830   1.525       .  S
C827        H834   1.087       .  S
C827        C828   1.350       .  D
C828        C829   1.607       .  S
C829        C833   1.552       .  S
C829        C831   1.569       .  S
C829        H835   1.110       .  S
C830        H836   1.085       .  S
C830        C831   1.359       .  D
C832        H837   1.087       .  S
C832        C833   1.348       .  D
C838        C839   1.534       .  S
C838        C844   1.576       .  S
C838        C842   1.511       .  S
C838       C1306   1.550       .  S
C839        H846   1.085       .  S
C839        C840   1.381       .  D
C840        C841   1.553       .  S
C840        C883   1.496       .  S
C841        C845   1.591       .  S
C841        C843   1.549       .  S
C841        H847   1.106       .  S
C842        H848   1.089       .  S
C842        C843   1.342       .  D
C843       C1270   1.464       .  S
C844        H849   1.086       .  S
C844        C845   1.377       .  D
C850        C851   1.528       .  S
C850        C856   1.578       .  S
C850        C854   1.513       .  S
C851        H858   1.086       .  S
C851        C852   1.378       .  D
C852        C853   1.547       .  S
C853        C857   1.588       .  S
C853        C855   1.564       .  S
C853        H859   1.100       .  S
C854        H860   1.088       .  S
C854        C855   1.346       .  D
C856        H861   1.086       .  S
C856        C857   1.377       .  D
N862        C867   1.336       .  A
N862        C866   1.323       .  A
N862        H894   1.047       .  S
N863        C870   1.352       .  A
N863        C871   1.344       .  A
N864        C869   1.343       .  A
N864        C868   1.351       .  A
N864        H895   1.042       .  S
N865        C872   1.359       .  A
N865        C873   1.347       .  A
C866        C874   1.393       .  A
C866        C882   1.390       .  A
C867        C883   1.367       .  A
C867        C875   1.380       .  A
C868        C876   1.382       .  A
C868        C885   1.405       .  A
C869        C884   1.402       .  A
C869        C877   1.387       .  A
C870        C882   1.414       .  A
C870        C878   1.380       .  A
C871        C885   1.423       .  A
C871        C879   1.383       .  A
C872        C880   1.371       .  A
C872        C883   1.412       .  A
C873        C881   1.391       .  A
C873        C884   1.429       .  A
C874        C875   1.369       .  A
C874        H886   1.080       .  S
C875        H887   1.080       .  S
C876        C877   1.376       .  A
C876        H888   1.078       .  S
C877        H889   1.077       .  S
C878        C879   1.376       .  A
C878        H890   1.071       .  S
C879        H891   1.074       .  S
C880        C881   1.365       .  A
C880        H892   1.077       .  S
C881        H893   1.067       .  S
C896        C897   1.529       .  S
C896        C902   1.542       .  S
C896        C900   1.559       .  S
C897        H904   1.086       .  S
C897        C898   1.368       .  D
C898        C899   1.547       .  S
C899        C903   1.529       .  S
C899        C901   1.565       .  S
C899        H905   1.098       .  S
C900        H906   1.074       .  S
C900        C901   1.360       .  D
C902        H907   1.080       .  S
C902        C903   1.361       .  D
C908        C909   1.528       .  S
C908        C914   1.518       .  S
C908        C912   1.557       .  S
C909        H916   1.081       .  S
C909        C910   1.352       .  D
C910        C911   1.552       .  S
C911        C915   1.557       .  S
C911        C913   1.603       .  S
C911        H917   1.104       .  S
C912        H918   1.080       .  S
C912        C913   1.373       .  D
C914        H919   1.088       .  S
C914        C915   1.353       .  D
C915        C974   1.498       .  S
N920        C925   1.343   1_455  A
N920        C924   1.336       .  A
N920        H952   1.046       .  S
N921        C928   1.351       .  A
N921        C929   1.356       .  A
N922        C927   1.340   1_455  A
N922        C926   1.343       .  A
N922        H953   1.046       .  S
N923        C930   1.358       .  A
N923        C931   1.351       .  A
C924        C932   1.393       .  A
C924        C940   1.398       .  A
C925        C941   1.391       .  A
C925        C933   1.381   1_655  A
C926        C934   1.384       .  A
C926        C943   1.398       .  A
C927        C942   1.394       .  A
C927        C935   1.386       .  A
C928        C940   1.436       .  A
C928        C936   1.391       .  A
C929        C943   1.439       .  A
C929        C937   1.390       .  A
C930        C938   1.380       .  A
C930        C941   1.432       .  A
C931        C939   1.378       .  A
C931        C942   1.421       .  A
C932        C933   1.380       .  A
C932        H944   1.082       .  S
C933        H945   1.082   1_455  S
C934        C935   1.375   1_455  A
C934        H946   1.083       .  S
C935        H947   1.073       .  S
C936        C937   1.409       .  A
C936        H948   1.082       .  S
C937        H949   1.081       .  S
C938        C939   1.377       .  A
C938        H950   1.064       .  S
C939        H951   1.069       .  S
C942       C1102   1.506       .  S
C943       C1111   1.530       .  S
N954        C959   1.347       .  A
N954        C958   1.351   1_565  A
N954        H986   1.040       .  S
N955        C962   1.356       .  A
N955        C963   1.359       .  A
N956        C961   1.347       .  A
N956        C960   1.346   1_565  A
N956        H987   1.046       .  S
N957        C964   1.357       .  A
N957        C965   1.364       .  A
C958        C966   1.390       .  A
C958        C974   1.404       .  A
C959        C975   1.395       .  A
C959        C967   1.381       .  A
C960        C968   1.384       .  A
C960        C977   1.398       .  A
C961        C976   1.404       .  A
C961        C969   1.387       .  A
C962        C974   1.438       .  A
C962        C970   1.391       .  A
C963        C977   1.424       .  A
C963        C971   1.380       .  A
C964        C972   1.385       .  A
C964        C975   1.438       .  A
C965        C973   1.377       .  A
C965        C976   1.432       .  A
C966        C967   1.353   1_545  A
C966        H978   1.068       .  S
C967        H979   1.083       .  S
C968        C969   1.374   1_545  A
C968        H980   1.083       .  S
C969        H981   1.082       .  S
C970        C971   1.373       .  A
C970        H982   1.080       .  S
C971        H983   1.075       .  S
C972        C973   1.383       .  A
C972        H984   1.079       .  S
C973        H985   1.068       .  S
C976       C1097   1.571       .  S
C977       C1056   1.547       .  S
N988        C993   1.332       .  A
N988        C992   1.336       .  A
N988       H1020   1.046       .  S
N989        C996   1.345       .  A
N989        C997   1.341       .  A
N990        C995   1.343       .  A
N990        C994   1.342       .  A
N990       H1021   1.046       .  S
N991        C998   1.341       .  A
N991        C999   1.334       .  A
C992       C1000   1.385       .  A
C992       C1008   1.373       .  A
C993       C1009   1.394       .  A
C993       C1001   1.389       .  A
C994       C1002   1.388       .  A
C994       C1011   1.400       .  A
C995       C1010   1.405       .  A
C995       C1003   1.386       .  A
C996       C1008   1.407       .  A
C996       C1004   1.382       .  A
C997       C1011   1.418       .  A
C997       C1005   1.390       .  A
C998       C1006   1.389       .  A
C998       C1009   1.423       .  A
C999       C1007   1.388       .  A
C999       C1010   1.416       .  A
C1000      C1001   1.368       .  A
C1000      H1012   1.082       .  S
C1001      H1013   1.082       .  S
C1002      C1003   1.380       .  A
C1002      H1014   1.083       .  S
C1003      H1015   1.082       .  S
C1004      C1005   1.384       .  A
C1004      H1016   1.075       .  S
C1005      H1017   1.077       .  S
C1006      C1007   1.404       .  A
C1006      H1018   1.077       .  S
C1007      H1019   1.079       .  S
C1008      C1058   1.473       .  S
C1009      C1133   1.518       .  S
N1022      C1027   1.345       .  A
N1022      C1026   1.348       .  A
N1022      H1054   1.046       .  S
N1023      C1030   1.356       .  A
N1023      C1031   1.341       .  A
N1024      C1029   1.343       .  A
N1024      C1028   1.341       .  A
N1024      H1055   1.039       .  S
N1025      C1032   1.346       .  A
N1025      C1033   1.339       .  A
C1026      C1034   1.385       .  A
C1026      C1042   1.410       .  A
C1027      C1043   1.410       .  A
C1027      C1035   1.390       .  A
C1028      C1036   1.387       .  A
C1028      C1045   1.385       .  A
C1029      C1044   1.385       .  A
C1029      C1037   1.382       .  A
C1030      C1042   1.420       .  A
C1030      C1038   1.386       .  A
C1031      C1045   1.416       .  A
C1031      C1039   1.374       .  A
C1032      C1040   1.386       .  A
C1032      C1043   1.406       .  A
C1033      C1041   1.384       .  A
C1033      C1044   1.401       .  A
C1034      C1035   1.380       .  A
C1034      H1046   1.082       .  S
C1035      H1047   1.083       .  S
C1036      C1037   1.359       .  A
C1036      H1048   1.083       .  S
C1037      H1049   1.082       .  S
C1038      C1039   1.376       .  A
C1038      H1050   1.069       .  S
C1039      H1051   1.064       .  S
C1040      C1041   1.381       .  A
C1040      H1052   1.077       .  S
C1041      H1053   1.078       .  S
C1042      C1114   1.525       .  S
C1043      C1126   1.496       .  S
C1056      C1057   1.540       .  S
C1056      C1062   1.553       .  S
C1056      C1060   1.532       .  S
C1057      H1064   1.082       .  S
C1057      C1058   1.360       .  D
C1058      C1059   1.534       .  S
C1059      C1063   1.548       .  S
C1059      C1061   1.533       .  S
C1059      H1065   1.096       .  S
C1060      H1066   1.086       .  S
C1060      C1061   1.370       .  D
C1062      H1067   1.084       .  S
C1062      C1063   1.370       .  D
C1063      C1076   1.518       .  S
O1068      C1076   1.255       .  A
O1068     Co1088   1.978   1_545  S
O1069      C1077   1.274       .  A
O1069     Co1089   2.024       .  S
O1070      C1078   1.313       .  A
O1070     Co1090   2.151       .  S
O1071      C1079   1.277       .  A
O1071     Co1091   2.097   1_655  S
O1072      C1078   1.287       .  A
O1072     Co1089   1.932   1_545  S
O1073      C1079   1.256       .  A
O1073     Co1088   1.975       .  S
O1074      C1077   1.283       .  A
O1074     Co1091   2.075       .  S
O1075      C1076   1.264       .  A
O1075     Co1090   2.047   1_655  S
C1077      C1109   1.586       .  S
C1078      C1196   1.541       .  S
C1079      C1099   1.542       .  S
O1080      C1093   1.275       .  A
O1080     Co1088   2.068       .  S
O1081      C1094   1.280       .  A
O1081     Co1089   2.106   1_545  S
O1082      C1095   1.275       .  A
O1082     Co1090   2.034   1_655  S
O1083      C1096   1.252       .  A
O1083     Co1091   1.967       .  S
O1084      C1096   1.285       .  A
O1084     Co1089   2.068       .  S
O1085      C1095   1.286       .  A
O1085     Co1088   2.060   1_545  S
O1086      C1093   1.256       .  A
O1086     Co1091   1.960   1_655  S
O1087      C1094   1.260       .  A
O1087     Co1090   2.021       .  S
Co1088     O1092   2.122   1_655  S
Co1089     O1092   2.059       .  S
Co1090     O1092   2.141   1_545  S
Co1091     O1092   2.103       .  S
C1093      C1145   1.554       .  S
C1094      C1205   1.565       .  S
C1095      C1138   1.543       .  S
C1096      C1121   1.551       .  S
C1097      C1098   1.554       .  S
C1097      C1103   1.545       .  S
C1097      C1101   1.535       .  S
C1098      H1105   1.084       .  S
C1098      C1099   1.365       .  D
C1099      C1100   1.558       .  S
C1100      C1104   1.546       .  S
C1100      C1102   1.545       .  S
C1100      H1106   1.084       .  S
C1101      H1107   1.086       .  S
C1101      C1102   1.374       .  D
C1103      H1108   1.085       .  S
C1103      C1104   1.382       .  D
C1104      C1178   1.504       .  S
C1109      C1110   1.535       .  S
C1109      C1115   1.534       .  S
C1109      C1113   1.529       .  S
C1110      H1117   1.084       .  S
C1110      C1111   1.394       .  D
C1111      C1112   1.541       .  S
C1112      C1116   1.546       .  S
C1112      C1114   1.557       .  S
C1112      H1118   1.087       .  S
C1113      H1119   1.077       .  S
C1113      C1114   1.383       .  D
C1115      H1120   1.084       .  S
C1115      C1116   1.392       .  D
C1121      C1122   1.533       .  S
C1121      C1127   1.545       .  S
C1121      C1125   1.500       .  S
C1122      H1129   1.085       .  S
C1122      C1123   1.395       .  D
C1123      C1124   1.547       .  S
C1124      C1128   1.544       .  S
C1124      C1126   1.551       .  S
C1124      H1130   1.084       .  S
C1125      H1131   1.077       .  S
C1125      C1126   1.368       .  D
C1127      H1132   1.084       .  S
C1127      C1128   1.381       .  D
C1128      C1238   1.525       .  S
C1133      C1134   1.521       .  S
C1133      C1139   1.525       .  S
C1133      C1137   1.551       .  S
C1134      H1141   1.086       .  S
C1134      C1135   1.339       .  D
C1135      C1136   1.539       .  S
C1136      C1140   1.567       .  S
C1136      C1138   1.584       .  S
C1136      H1142   1.101       .  S
C1137      H1143   1.083       .  S
C1137      C1138   1.358       .  D
C1139      H1144   1.083       .  S
C1139      C1140   1.379       .  D
C1140      C1272   1.503       .  S
C1145      C1146   1.546       .  S
C1145      C1151   1.523       .  S
C1145      C1149   1.521       .  S
C1146      H1153   1.084       .  S
C1146      C1147   1.368       .  D
C1147      C1148   1.538       .  S
C1147      C1237   1.512       .  S
C1148      C1152   1.565       .  S
C1148      C1150   1.544       .  S
C1148      H1154   1.098       .  S
C1149      H1155   1.085       .  S
C1149      C1150   1.383       .  D
C1150      C1177   1.510       .  S
C1151      H1156   1.086       .  S
C1151      C1152   1.388       .  D
C1152      C1271   1.513       .  S
N1157      C1162   1.338       .  A
N1157      C1161   1.337       .  A
N1157      H1189   1.046       .  S
N1158      C1165   1.358       .  A
N1158      C1166   1.344       .  A
N1159      C1164   1.349       .  A
N1159      C1163   1.352       .  A
N1159      H1190   1.041       .  S
N1160      C1167   1.358       .  A
N1160      C1168   1.346       .  A
C1161      C1169   1.378       .  A
C1161      C1177   1.381       .  A
C1162      C1178   1.388       .  A
C1162      C1170   1.385       .  A
C1163      C1171   1.386       .  A
C1163      C1180   1.405       .  A
C1164      C1179   1.406       .  A
C1164      C1172   1.387       .  A
C1165      C1177   1.410       .  A
C1165      C1173   1.377       .  A
C1166      C1180   1.413       .  A
C1166      C1174   1.375       .  A
C1167      C1175   1.376       .  A
C1167      C1178   1.410       .  A
C1168      C1176   1.378       .  A
C1168      C1179   1.415       .  A
C1169      C1170   1.374       .  A
C1169      H1181   1.078       .  S
C1170      H1182   1.074       .  S
C1171      C1172   1.375       .  A
C1171      H1183   1.082       .  S
C1172      H1184   1.082       .  S
C1173      C1174   1.380       .  A
C1173      H1185   1.071       .  S
C1174      H1186   1.063       .  S
C1175      C1176   1.368       .  A
C1175      H1187   1.072       .  S
C1176      H1188   1.067       .  S
C1191      C1192   1.529       .  S
C1191      C1197   1.513       .  S
C1191      C1195   1.536       .  S
C1192      H1199   1.085       .  S
C1192      C1193   1.347       .  D
C1193      C1194   1.552       .  S
C1194      C1198   1.567       .  S
C1194      C1196   1.601       .  S
C1194      H1200   1.106       .  S
C1195      H1201   1.071       .  S
C1195      C1196   1.356       .  D
C1197      H1202   1.086       .  S
C1197      C1198   1.363       .  D
C1203      C1204   1.556       .  S
C1203      C1209   1.519       .  S
C1203      C1207   1.521       .  S
C1204      H1211   1.075       .  S
C1204      C1205   1.371       .  D
C1205      C1206   1.596       .  S
C1206      C1210   1.576       .  S
C1206      C1208   1.555       .  S
C1206      H1212   1.102       .  S
C1207      H1213   1.086       .  S
C1207      C1208   1.345       .  D
C1209      H1214   1.086       .  S
C1209      C1210   1.361       .  D
N1215      C1220   1.345   1_455  A
N1215      C1219   1.346       .  A
N1215      H1247   1.046       .  S
N1216      C1223   1.356       .  A
N1216      C1224   1.356       .  A
N1217      C1222   1.348   1_455  A
N1217      C1221   1.348       .  A
N1217      H1248   1.045       .  S
N1218      C1225   1.343       .  A
N1218      C1226   1.350       .  A
C1219      C1227   1.386       .  A
C1219      C1235   1.405       .  A
C1220      C1236   1.403       .  A
C1220      C1228   1.386       .  A
C1221      C1229   1.387       .  A
C1221      C1238   1.409       .  A
C1222      C1237   1.413       .  A
C1222      C1230   1.387       .  A
C1223      C1235   1.442       .  A
C1223      C1231   1.390       .  A
C1224      C1238   1.427       .  A
C1224      C1232   1.382       .  A
C1225      C1233   1.392       .  A
C1225      C1236   1.423       .  A
C1226      C1234   1.384       .  A
C1226      C1237   1.412       .  A
C1227      C1228   1.378   1_455  A
C1227      H1239   1.082       .  S
C1228      H1240   1.083       .  S
C1229      C1230   1.375   1_455  A
C1229      H1241   1.083       .  S
C1230      H1242   1.078       .  S
C1231      C1232   1.390       .  A
C1231      H1243   1.069       .  S
C1232      H1244   1.078       .  S
C1233      C1234   1.382       .  A
C1233      H1245   1.079       .  S
C1234      H1246   1.078       .  S
N1249      C1254   1.332       .  A
N1249      C1253   1.338   1_565  A
N1249      H1281   1.046       .  S
N1250      C1257   1.360       .  A
N1250      C1258   1.350       .  A
N1251      C1256   1.345       .  A
N1251      C1255   1.342   1_565  A
N1251      H1282   1.045       .  S
N1252      C1259   1.347       .  A
N1252      C1260   1.355       .  A
C1253      C1261   1.386       .  A
C1253      C1269   1.390       .  A
C1254      C1270   1.379       .  A
C1254      C1262   1.387       .  A
C1255      C1263   1.387   1_545  A
C1255      C1272   1.397       .  A
C1256      C1271   1.403       .  A
C1256      C1264   1.384       .  A
C1257      C1269   1.436       .  A
C1257      C1265   1.383       .  A
C1258      C1272   1.429       .  A
C1258      C1266   1.382       .  A
C1259      C1267   1.379       .  A
C1259      C1270   1.416       .  A
C1260      C1268   1.379       .  A
C1260      C1271   1.413       .  A
C1261      C1262   1.370   1_545  A
C1261      H1273   1.082       .  S
C1262      H1274   1.081       .  S
C1263      C1264   1.376       .  A
C1263      H1275   1.076   1_565  S
C1264      H1276   1.082       .  S
C1265      C1266   1.382       .  A
C1265      H1277   1.067       .  S
C1266      H1278   1.074       .  S
C1267      C1268   1.388       .  A
C1267      H1279   1.071       .  S
C1268      H1280   1.077       .  S
N1283      C1288   1.346   1_556  A
N1283      C1287   1.335       .  A
N1283      H1315   1.042       .  S
N1284      C1291   1.352       .  A
N1284      C1292   1.366       .  A
N1285      C1290   1.336   1_556  A
N1285      C1289   1.341       .  A
N1285      H1316   1.046       .  S
N1286      C1293   1.344       .  A
N1286      C1294   1.351       .  A
C1287      C1295   1.391       .  A
C1287      C1303   1.388       .  A
C1288      C1304   1.388       .  A
C1288      C1296   1.385   1_554  A
C1289      C1297   1.384       .  A
C1289      C1306   1.382       .  A
C1290      C1305   1.391       .  A
C1290      C1298   1.390       .  A
C1291      C1303   1.430       .  A
C1291      C1299   1.378       .  A
C1292      C1306   1.434       .  A
C1292      C1300   1.380       .  A
C1293      C1301   1.379       .  A
C1293      C1304   1.426       .  A
C1294      C1302   1.382       .  A
C1294      C1305   1.417       .  A
C1295      C1296   1.362       .  A
C1295      H1307   1.082       .  S
C1296      H1308   1.083   1_556  S
C1297      C1298   1.357   1_556  A
C1297      H1309   1.079       .  S
C1298      H1310   1.080       .  S
C1299      C1300   1.387       .  A
C1299      H1311   1.066       .  S
C1300      H1312   1.072       .  S
C1301      C1302   1.390       .  A
C1301      H1313   1.060       .  S
C1302      H1314   1.081       .  S
