geometry optimzed in LAMMPS
_audit_creation_date              2020-12-01 
_audit_creation_method            'lammps2cif' 
_symmetry_space_group_name_H-M    'P1' 
_symmetry_Int_Tables_number       1 
_symmetry_cell_setting            triclinic 
loop_ 
_symmetry_equiv_pos_as_xyz 
  x,y,z 
_cell_length_a                    40.96400067 
_cell_length_b                    34.6654132175517 
_cell_length_c                    34.52660399945636 
_cell_angle_alpha                 89.6599272452068 
_cell_angle_beta                  89.82455817617362 
_cell_angle_gamma                 90.12115281561839 
loop_ 
_atom_site_label 
_atom_site_type_symbol 
_atom_site_fract_x 
_atom_site_fract_y 
_atom_site_fract_z 
_atom_site_charge 
O1          O  0.45140883  0.42396993  0.42052981    -0.75000
O2          O  0.41297894  0.45655106  0.45577920    -0.53900
C3          C  0.42212034  0.43301554  0.42916994     0.78700
O4          O  0.05865955  0.41121847  0.06653300    -0.59600
O5          O  0.09869912  0.44712225  0.03865172    -0.52700
C6          C  0.08895025  0.41882955  0.05996401     0.70700
O7          O  0.44962705  0.41345608  0.06890764    -0.74200
O8          O  0.41037400  0.45245462  0.04438401    -0.54700
C9          C  0.41957138  0.42322512  0.06443869     0.76700
O10         O  0.05662487  0.42170858  0.41464924    -0.59300
O11         O  0.09713982  0.44865095  0.45009936    -0.52400
C12         C  0.08686510  0.42571843  0.42312420     0.73300
Zr13       Zr  0.00365913  0.44226546  0.43828672     2.54700
O14         O  0.00000018  0.37230742  0.44468148    -0.79900
O15         O  0.00700552  0.44072140  0.36785084    -0.93300
Zr16       Zr  0.00378214  0.43326614  0.05246434     2.64700
O17         O  0.50572844  0.36540518  0.06676797    -0.98300
O18         O  0.00227108  0.42795876  0.12276362    -0.80300
O19         O  0.47253694  0.43859169  0.49647285    -0.83700
O20         O  0.03535111  0.43685824  0.99534126    -2.18400
O21         O  0.06045817  0.07604500  0.43182337    -0.67100
O22         O  0.09939074  0.03781495  0.45806480    -0.51600
C23         C  0.09032040  0.06595051  0.43664612     0.71700
O24         O  0.45318760  0.06388845  0.08521094    -0.60000
O25         O  0.41287452  0.03715592  0.04929652    -0.52000
C26         C  0.42286104  0.05982802  0.07637581     0.73500
O27         O  0.06269595  0.06570855  0.07508861    -0.71400
O28         O  0.10039041  0.03435457  0.03810747    -0.50100
C29         C  0.09211463  0.05908352  0.06413165     0.74900
O30         O  0.45006904  0.08057336  0.43097930    -0.66700
O31         O  0.41134401  0.04511305  0.46319775    -0.53900
C32         C  0.42020924  0.07156982  0.43912909     0.73300
Zr33       Zr  0.50513379  0.05876018  0.44924294     2.77500
O34         O  0.50562899  0.12895186  0.45338593    -0.97500
O35         O  0.50950604  0.06103649  0.37891063    -0.78300
Zr36       Zr  0.50636430  0.04215842  0.06270309     2.70100
O37         O  0.00712584  0.11923780  0.05770466    -0.79500
O38         O  0.50871771  0.02997143  0.13220906    -0.98600
Zr39       Zr  0.44158439  0.49649818  0.50220307     2.21500
Zr40       Zr  0.06899055  0.99166115  0.99619143     2.11100
O41         O  0.03793087  0.05045807  0.99973755    -2.47300
O42         O  0.47388684  0.05593463  0.50694847    -0.79300
O43         O  0.03681491  0.00223834  0.44241399    -0.71500
O44         O  0.47399641  0.49207553  0.06233665    -2.32500
O45         O  0.47233341  0.49924014  0.44346371    -2.28700
O46         O  0.03875548  0.99146033  0.05554573    -0.73300
H47         H  0.04837953  0.41380732  0.99304198     0.78700
H48         H  0.46032144  0.49109460  0.08516404     0.79800
H49         H  0.05205014  0.07274914  0.00057063     0.82000
H50         H  0.45808966  0.50105827  0.42136143     0.79600
H51         H  0.48442277  0.43034680  0.13645594     0.42700
H52         H  0.00402522  0.07307376  0.13660601     0.41700
H53         H  0.49400591  0.12025936  0.04112350     0.41300
H54         H  0.98963206  0.13789285  0.46437284     0.39300
H55         H  0.99909994  0.08592609  0.37017354     0.42400
H56         H  0.50306779  0.42841527  0.35813340     0.37200
H57         H  0.48721334  0.36517590  0.45795528     0.43300
H58         H  0.98384711  0.35706340  0.03165454     0.39700
H59         H  0.50468409  0.13793582  0.42613561     0.44600
H60         H  0.99093097  0.42103260  0.35970197     0.43400
H61         H  0.49057660  0.35533785  0.04693868     0.43500
H62         H  0.51007026  0.05593480  0.14388290     0.43800
C63         C  0.18269841  0.15551601  0.33984218    -0.02200
C64         C  0.18166190  0.33331094  0.32748635    -0.02200
C65         C  0.17896731  0.32399944  0.15345325    -0.02200
C66         C  0.18337862  0.14489451  0.16343426    -0.02200
C67         C  0.33063371  0.16600423  0.34918195    -0.02200
C68         C  0.33320725  0.15655705  0.17242910    -0.02200
C69         C  0.32825900  0.33112871  0.16085920    -0.02200
C70         C  0.33056448  0.34075747  0.33879681    -0.02200
C71         C  0.33353048  0.37998540  0.26795319    -0.05500
C72         C  0.34031194  0.34716463  0.29229891     0.00400
C73         C  0.35963363  0.32069688  0.27144348    -0.08200
C74         C  0.35017891  0.31323269  0.23268086    -0.05500
C75         C  0.33834827  0.34252778  0.20615898     0.00400
C76         C  0.33506614  0.37922886  0.22602579    -0.08100
C77         C  0.33585644  0.41901997  0.20736518     0.62300
H78         H  0.32974000  0.40778509  0.28114179     0.13000
H79         H  0.35524322  0.28426997  0.22383858     0.13000
C80         C  0.39631570  0.32709672  0.27472996     0.62500
F81         F  0.30821470  0.43957406  0.21750286    -0.22600
F82         F  0.33809109  0.41841033  0.16783703    -0.20000
F83         F  0.36278485  0.43877651  0.22112538    -0.19600
F84         F  0.41350934  0.29836189  0.25608759    -0.19700
F85         F  0.40642733  0.32842724  0.31265223    -0.20000
F86         F  0.40454652  0.36197742  0.25753018    -0.22700
C87         C  0.31026718  0.22336855  0.17950700    -0.05500
C88         C  0.33277151  0.20152821  0.15900588     0.00400
C89         C  0.34934106  0.22331231  0.12866389    -0.08200
C90         C  0.34974955  0.26473999  0.13074397    -0.05500
C91         C  0.33030395  0.28592010  0.15739997     0.00400
C92         C  0.30936097  0.26373279  0.18034916    -0.08100
C93         C  0.28275883  0.28042204  0.20423370     0.62300
H94         H  0.29589122  0.20740174  0.19999329     0.13000
H95         H  0.36464607  0.28059655  0.11029339     0.13000
C96         C  0.36184846  0.20619806  0.09085083     0.62500
F97         F  0.25605808  0.27779496  0.18239667    -0.22600
F98         F  0.28364414  0.31673373  0.21842938    -0.20000
F99         F  0.28072851  0.25897531  0.23556500    -0.19600
F100        F  0.34049325  0.17881579  0.07714051    -0.19700
F101        F  0.39250799  0.19072538  0.09525998    -0.20000
F102        F  0.36409715  0.23405816  0.06201446    -0.22700
C103        C  0.34677365  0.18969517  0.24084583    -0.05500
C104        C  0.34423146  0.15442407  0.21916612     0.00400
C105        C  0.35548958  0.12195038  0.24368935    -0.08200
C106        C  0.35585640  0.12607704  0.28582949    -0.05500
C107        C  0.34714795  0.16088575  0.30519221     0.00400
C108        C  0.35661923  0.19186064  0.28005277    -0.08100
C109        C  0.39211993  0.20657628  0.28177593     0.62300
H110        H  0.35147329  0.21628992  0.22591633     0.13000
H111        H  0.36348959  0.10165804  0.30274950     0.13000
C112        C  0.37127857  0.08422534  0.23018814     0.62500
F113        F  0.40700645  0.20974751  0.24609560    -0.22600
F114        F  0.41173830  0.18183865  0.30253014    -0.20000
F115        F  0.39322591  0.24291704  0.29650419    -0.19600
F116        F  0.36494305  0.07489507  0.19247531    -0.19700
F117        F  0.36068859  0.05345876  0.25278454    -0.20000
F118        F  0.40465069  0.08651076  0.23505359    -0.22700
C119        C  0.36493801  0.27608774  0.35826601    -0.05500
C120        C  0.33579342  0.29588877  0.34728837     0.00400
C121        C  0.30904810  0.27216345  0.34733760    -0.08200
C122        C  0.30910238  0.23609861  0.36571020    -0.05500
C123        C  0.33583352  0.21164222  0.35999714     0.00400
C124        C  0.36597799  0.23422388  0.36334054    -0.08100
C125        C  0.39838154  0.21858249  0.37833422     0.62300
H126        H  0.38666265  0.29271633  0.36369153     0.13000
H127        H  0.28601193  0.22629751  0.37538097     0.13000
C128        C  0.28862611  0.27257803  0.31351688     0.62500
F129        F  0.42438602  0.23876217  0.36235628    -0.22600
F130        F  0.40328134  0.18033138  0.37018367    -0.20000
F131        F  0.39959056  0.22341891  0.41797264    -0.19600
F132        F  0.29204365  0.30254078  0.28830138    -0.19700
F133        F  0.25776611  0.27433354  0.32751252    -0.20000
F134        F  0.29740027  0.23907969  0.29432900    -0.22700
C135        C  0.24169139  0.11459294  0.18466042    -0.05500
C136        C  0.22258353  0.13685751  0.15822342     0.00400
C137        C  0.24250788  0.15520707  0.12891884    -0.08200
C138        C  0.27657168  0.16082871  0.13517686    -0.05500
C139        C  0.29509573  0.14258219  0.16514044     0.00400
C140        C  0.27660179  0.11219176  0.18347166    -0.08100
C141        C  0.29016381  0.07188722  0.18985677     0.62300
H142        H  0.22982861  0.09643686  0.20542474     0.13000
H143        H  0.28920416  0.17868873  0.11425272     0.13000
C144        C  0.23067231  0.16714023  0.08896703     0.62500
F145        F  0.30715280  0.06986794  0.22340413    -0.22600
F146        F  0.30976338  0.06107202  0.15937295    -0.20000
F147        F  0.26568085  0.04437585  0.19258619    -0.19600
F148        F  0.23030002  0.20691620  0.08595641    -0.19700
F149        F  0.20040650  0.15251576  0.08014774    -0.20000
F150        F  0.25190422  0.15294896  0.06124697    -0.22700
C151        C  0.16629587  0.21030798  0.12081330    -0.05500
C152        C  0.18077599  0.19102326  0.15364501     0.00400
C153        C  0.19661021  0.21708680  0.17765210    -0.08200
C154        C  0.19552406  0.25723340  0.17303083    -0.05500
C155        C  0.17831897  0.27736280  0.14573841     0.00400
C156        C  0.16583640  0.25220866  0.11536419    -0.08100
C157        C  0.15515840  0.26699800  0.07572944     0.62300
H158        H  0.15634210  0.19295583  0.09804611     0.13000
H159        H  0.20571532  0.27451262  0.19578865     0.13000
C160        C  0.21346357  0.20687242  0.21279772     0.62500
F161        F  0.15329412  0.23750168  0.04893869    -0.22600
F162        F  0.17749680  0.29322304  0.06130180    -0.20000
F163        F  0.12469128  0.28356892  0.07763835    -0.19600
F164        F  0.24418855  0.21758521  0.20770164    -0.19700
F165        F  0.21712814  0.17002298  0.22309900    -0.20000
F166        F  0.19677046  0.22668240  0.24086825    -0.22700
C167        C  0.23728591  0.31526834  0.12023394    -0.05500
C168        C  0.21740502  0.33724407  0.14580550     0.00400
C169        C  0.23556594  0.37015782  0.16006266    -0.08200
C170        C  0.27040028  0.36792921  0.16470707    -0.05500
C171        C  0.29023216  0.33971607  0.14705992     0.03600
C172        C  0.27221778  0.31817704  0.11793356    -0.08100
C173        C  0.28708650  0.29695317  0.08377811     0.62300
H174        H  0.22571781  0.29443477  0.10168563     0.13000
H175        H  0.28243537  0.39118480  0.17891767     0.13000
C176        C  0.22419530  0.41159765  0.15680092     0.62500
F177        F  0.28610201  0.25765905  0.09067049    -0.22600
F178        F  0.31853962  0.30811527  0.07553719    -0.20000
F179        F  0.26900501  0.30466580  0.05079995    -0.19600
F180        F  0.19312612  0.41498585  0.14339649    -0.19700
F181        F  0.24390390  0.43105313  0.13044521    -0.20000
F182        F  0.22700616  0.43003167  0.19182290    -0.22700
C183        C  0.16514910  0.37005484  0.26138850    -0.05500
C184        C  0.16717326  0.33604375  0.28362145     0.00400
C185        C  0.15096321  0.30572817  0.26345757    -0.08200
C186        C  0.15631610  0.30229532  0.22316414    -0.05500
C187        C  0.16728879  0.33319052  0.19872807     0.00400
C188        C  0.16311590  0.36973206  0.21947755    -0.08100
C189        C  0.14694307  0.40630219  0.20425500     0.62300
H190        H  0.16363150  0.39707765  0.27663005     0.13000
H191        H  0.14793054  0.27584272  0.21072471     0.13000
C192        C  0.11822879  0.29029426  0.27783049     0.62500
F193        F  0.11808126  0.41187412  0.22444108    -0.22600
F194        F  0.13867304  0.40561265  0.16602027    -0.20000
F195        F  0.16668209  0.43790801  0.21086491    -0.19600
F196        F  0.09863732  0.32081043  0.28872031    -0.19700
F197        F  0.12195556  0.26515988  0.30826160    -0.20000
F198        F  0.10129838  0.27108875  0.24921615    -0.22700
C199        C  0.23537498  0.33425955  0.36840966    -0.05500
C200        C  0.22032263  0.34403143  0.33233938     0.00400
C201        C  0.24291886  0.36314936  0.30603714    -0.08200
C202        C  0.27470037  0.37330206  0.31876771    -0.05500
C203        C  0.29196432  0.35350664  0.34744163     0.00400
C204        C  0.26930409  0.34098910  0.37750722    -0.08100
C205        C  0.27408412  0.35048298  0.42011596     0.62300
H206        H  0.22001478  0.32307905  0.39126868     0.13000
H207        H  0.28563770  0.39797064  0.30572138     0.13000
C208        C  0.23786881  0.37236355  0.26370541     0.62500
F209        F  0.24762025  0.37093597  0.43424391    -0.22600
F210        F  0.30067302  0.37397056  0.42565114    -0.20000
F211        F  0.27611181  0.31716703  0.44209158    -0.19600
F212        F  0.21958518  0.40505506  0.25906896    -0.19700
F213        F  0.22534923  0.34074945  0.24488180    -0.20000
F214        F  0.26688054  0.38094478  0.24551886    -0.22700
C215        C  0.17482844  0.10498804  0.23155528    -0.05500
C216        C  0.16748954  0.13716181  0.20731987     0.00400
C217        C  0.15060429  0.16575549  0.22939246    -0.08200
C218        C  0.15886667  0.17161187  0.26915862    -0.05500
C219        C  0.17347692  0.14341834  0.29406643     0.00400
C220        C  0.17530334  0.10640922  0.27376468    -0.08100
C221        C  0.17418336  0.06674566  0.29271961     0.62300
H222        H  0.17933023  0.07775897  0.21766182     0.13000
H223        H  0.15152884  0.19898502  0.28044137     0.13000
C224        C  0.11834370  0.18240207  0.21582209     0.62500
F225        F  0.14538707  0.04872003  0.28225312    -0.22600
F226        F  0.17529315  0.06746888  0.33230418    -0.20000
F227        F  0.20000737  0.04459035  0.27971659    -0.19600
F228        F  0.09919772  0.15336464  0.20063499    -0.19700
F229        F  0.12292826  0.21113580  0.18879961    -0.20000
F230        F  0.10076331  0.19776255  0.24626908    -0.22700
C231        C  0.23862682  0.11945230  0.33300373    -0.05500
C232        C  0.21973317  0.14476730  0.35433070     0.00400
C233        C  0.23808303  0.16050433  0.38649974    -0.08200
C234        C  0.27333191  0.15976648  0.38542672    -0.05500
C235        C  0.29198666  0.15073019  0.35160888     0.00400
C236        C  0.27266253  0.12559898  0.32617731    -0.08100
C237        C  0.28368818  0.10704420  0.28923069     0.62300
H238        H  0.22543229  0.09959460  0.31601900     0.13000
H239        H  0.28586188  0.17249068  0.40929639     0.13000
C240        C  0.22358822  0.18120441  0.42114668     0.62500
F241        F  0.25943243  0.08689755  0.27006183    -0.22600
F242        F  0.30737315  0.08009339  0.29667370    -0.20000
F243        F  0.29280295  0.13602677  0.26433279    -0.19600
F244        F  0.23826749  0.16793472  0.45471870    -0.19700
F245        F  0.19065763  0.17550297  0.42566605    -0.20000
F246        F  0.22961405  0.22033381  0.41757227    -0.22700
C247        C  0.19636111  0.26423507  0.31323177    -0.05500
C248        C  0.18011503  0.28778113  0.33960236     0.00400
C249        C  0.16618734  0.26617878  0.37221052    -0.08200
C250        C  0.16365120  0.22444736  0.37015233    -0.05500
C251        C  0.18172608  0.20190963  0.34313576     0.00400
C252        C  0.20131870  0.22422885  0.31817597    -0.08100
C253        C  0.23197726  0.20847657  0.30158446     0.62300
H254        H  0.20876885  0.27890858  0.28967917     0.13000
H255        H  0.14913469  0.20958177  0.39180732     0.13000
C256        C  0.15632088  0.28253724  0.41136923     0.62500
F257        F  0.24392598  0.23243939  0.27493081    -0.22600
F258        F  0.23024560  0.17363540  0.28503441    -0.20000
F259        F  0.25377561  0.20641666  0.32984462    -0.19600
F260        F  0.12279793  0.28049663  0.41557577    -0.19700
F261        F  0.16665748  0.31978523  0.41743153    -0.20000
F262        F  0.17021905  0.26047868  0.44049818    -0.22700
C263        C  0.10270518  0.11438853  0.38721031    -0.05500
C264        C  0.11494708  0.08872990  0.41488122     0.00400
C265        C  0.14900363  0.08558273  0.41959501    -0.08200
C266        C  0.16904535  0.10875369  0.39620089    -0.05500
C267        C  0.15723571  0.13479817  0.36712736     0.00400
C268        C  0.12226606  0.13728716  0.36325568    -0.08100
C269        C  0.10326880  0.15913603  0.33223257     0.62300
H270        H  0.07666185  0.11499098  0.38270999     0.13000
H271        H  0.19466984  0.10423136  0.40007526     0.13000
C272        C  0.16479677  0.05738459  0.44804980     0.62500
F273        F  0.07047544  0.16322882  0.34129765    -0.22600
F274        F  0.10460997  0.13891637  0.29797561    -0.20000
F275        F  0.11446839  0.19592773  0.32790293    -0.19600
F276        F  0.16222676  0.03040586  0.95472980    -0.19700
F277        F  0.15400001  0.06476367  0.48526788    -0.20000
F278        F  0.19852808  0.06015575  0.44833031    -0.22700
C279        C  0.16664590  0.36578028  0.09336949    -0.05500
C280        C  0.15447778  0.34355790  0.12494598     0.00400
C281        C  0.11945734  0.34174264  0.12912830    -0.08200
C282        C  0.10037504  0.36777885  0.10793856    -0.05500
C283        C  0.11304402  0.39267970  0.07947089     0.00400
C284        C  0.14678649  0.39009709  0.07046515    -0.08100
C285        C  0.16217518  0.41228295  0.03691656     0.62300
H286        H  0.19235753  0.36498265  0.08681575     0.13000
H287        H  0.07462306  0.36923560  0.11476735     0.13000
C288        C  0.10009859  0.31517097  0.15618897     0.62500
F289        F  0.19465589  0.40265293  0.03146894    -0.22600
F290        F  0.16086383  0.45149139  0.04388901    -0.20000
F291        F  0.14872478  0.40691187  0.50573192    -0.19600
F292        F  0.09785582  0.33123835  0.19255399    -0.19700
F293        F  0.11328749  0.27900201  0.15820901    -0.20000
F294        F  0.06852782  0.30968353  0.14289342    -0.22700
C295        C  0.34547802  0.11118488  0.11477072    -0.05500
C296        C  0.35776803  0.13387741  0.14567336     0.00400
C297        C  0.39266012  0.13370320  0.15006092    -0.08200
C298        C  0.41132155  0.10601217  0.13008184    -0.05500
C299        C  0.39885550  0.08389827  0.09933538     0.00400
C300        C  0.36538055  0.08892107  0.08996106    -0.08100
C301        C  0.35051584  0.07296533  0.05304791     0.62300
H302        H  0.31989848  0.11226398  0.10808472     0.13000
H303        H  0.43708002  0.10419405  0.13687100     0.13000
C304        C  0.41273410  0.16352890  0.17164339     0.62500
F305        F  0.31878368  0.08547616  0.04740008    -0.22600
F306        F  0.34996481  0.03320530  0.05457167    -0.20000
F307        F  0.36562024  0.08704340  0.52294770    -0.19600
F308        F  0.42412748  0.14841854  0.20599885    -0.19700
F309        F  0.39570488  0.19663687  0.17864749    -0.20000
F310        F  0.43953460  0.17430499  0.14948129    -0.22700
C311        C  0.13124864  0.13389930  0.12692148    -0.05500
C312        C  0.16254744  0.11933106  0.13507646     0.00400
C313        C  0.17078901  0.08260852  0.11714609    -0.08200
C314        C  0.14752900  0.06491885  0.09255317    -0.05500
C315        C  0.11767531  0.08200509  0.08379092     0.00400
C316        C  0.11094927  0.11890459  0.09850419    -0.08100
C317        C  0.08334624  0.14439713  0.08410791     0.62300
H318        H  0.12332677  0.16016834  0.14013943     0.13000
H319        H  0.15190604  0.03666794  0.08049663     0.13000
C320        C  0.20181346  0.05915960  0.12404810     0.62500
F321        F  0.07295645  0.13392659  0.04756263    -0.22600
F322        F  0.09382618  0.18231279  0.08130673    -0.20000
F323        F  0.05757978  0.14254791  0.11000183    -0.19600
F324        F  0.20519098  0.05131670  0.16283741    -0.19700
F325        F  0.22889121  0.07800533  0.10949944    -0.20000
F326        F  0.20112874  0.02363174  0.10587394    -0.22700
C327        C  0.37227374  0.39431094  0.34797681    -0.05500
C328        C  0.35409594  0.36415485  0.36582783     0.00400
C329        C  0.36150660  0.35687547  0.40660537    -0.08200
C330        C  0.38169194  0.38313278  0.42599171    -0.05500
C331        C  0.39752686  0.41314704  0.40712969     0.00400
C332        C  0.39491165  0.41712560  0.36689566    -0.08100
C333        C  0.41653214  0.44259059  0.34128732     0.62300
H334        H  0.37157567  0.39981353  0.31772925     0.13000
H335        H  0.38752626  0.37839100  0.45631401     0.13000
C336        C  0.35322258  0.32231956  0.43303611     0.62500
F337        F  0.43520645  0.41916696  0.31767370    -0.22600
F338        F  0.43735047  0.46625667  0.36149740    -0.20000
F339        F  0.39723299  0.46566542  0.31798229    -0.19600
F340        F  0.38123042  0.30072811  0.43851730    -0.19700
F341        F  0.32927248  0.29827880  0.42024112    -0.20000
F342        F  0.34312321  0.33510854  0.46910603    -0.22700
C343        C  0.38578360  0.12970311  0.43479312    -0.05500
C344        C  0.39397816  0.09367619  0.41993702     0.00400
C345        C  0.37412783  0.07768839  0.39087978    -0.08200
C346        C  0.35018825  0.10091085  0.37373860    -0.05500
C347        C  0.34748201  0.14042139  0.38145883     0.00400
C348        C  0.36000178  0.15185656  0.41901032    -0.08100
C349        C  0.34191380  0.17646987  0.44901466     0.62300
H350        H  0.39812527  0.13879692  0.46091055     0.13000
H351        H  0.33417974  0.08845109  0.35293823     0.13000
C352        C  0.37964827  0.03732841  0.37605295     0.62500
F353        F  0.31629287  0.15505754  0.46407465    -0.22600
F354        F  0.33012824  0.21076407  0.43510273    -0.20000
F355        F  0.36198853  0.18602340  0.47974203    -0.19600
F356        F  0.37640910  0.01091382  0.40592344    -0.19700
F357        F  0.41417556  0.53674382  0.36002797    -0.20000
F358        F  0.35764630  0.02741751  0.34737640    -0.22700
C359        C  0.12709644  0.34704383  0.36017359    -0.05500
C360        C  0.15906375  0.36075389  0.35334637     0.00400
C361        C  0.16591901  0.39892996  0.36911055    -0.08200
C362        C  0.14230044  0.41703014  0.39332599    -0.05500
C363        C  0.11095400  0.40229359  0.39959888     0.00400
C364        C  0.10313033  0.36636219  0.38215338    -0.08100
C365        C  0.07005461  0.34681057  0.38765982     0.62300
H366        H  0.12126781  0.31896838  0.34982185     0.13000
H367        H  0.14764596  0.44445006  0.40672359     0.13000
C368        C  0.19553330  0.42416223  0.35950606     0.62500
F369        F  0.06938408  0.30976817  0.37289591    -0.22600
F370        F  0.04612539  0.36750519  0.36857777    -0.20000
F371        F  0.06278092  0.34423534  0.42673075    -0.19600
F372        F  0.19949790  0.42702700  0.32034437    -0.19700
F373        F  0.22340616  0.41027907  0.37642405    -0.20000
F374        F  0.19205618  0.46173523  0.37238217    -0.22700
C375        C  0.40751670  0.37465847  0.11447233    -0.05500
C376        C  0.39510106  0.39917315  0.08579059     0.00400
C377        C  0.36106629  0.39900857  0.07908185    -0.08200
C378        C  0.34110610  0.37622749  0.10325486    -0.05500
C379        C  0.35328445  0.35136635  0.13290980     0.00400
C380        C  0.38832357  0.34917375  0.13628206    -0.08100
C381        C  0.40952330  0.32139499  0.15975708     0.62300
H382        H  0.43359896  0.37442608  0.11975089     0.13000
H383        H  0.31528274  0.37940770  0.09913571     0.13000
C384        C  0.34507983  0.42323546  0.04761186     0.62500
F385        F  0.43111998  0.30329549  0.13483823    -0.22600
F386        F  0.39359383  0.29265037  0.17889886    -0.20000
F387        F  0.42747954  0.34205385  0.18641718    -0.19600
F388        F  0.36001507  0.41492366  0.51271743    -0.19700
F389        F  0.34747275  0.46171993  0.05703518    -0.20000
F390        F  0.31228475  0.41453250  0.04309006    -0.22700
O391        O  0.45112274  0.42508655  0.92257356    -0.75000
O392        O  0.41291037  0.45725366  0.95843116    -0.53900
C393        C  0.42187544  0.43442563  0.93117373     0.78700
O394        O  0.05994502  0.41223607  0.56560945    -0.59600
O395        O  0.09985202  0.44749155  0.53667393    -0.52700
C396        C  0.09018065  0.42017107  0.55930565     0.70700
O397        O  0.44957262  0.41572510  0.56966339    -0.74200
O398        O  0.41027152  0.45258987  0.54218288    -0.54700
C399        C  0.41951365  0.42502416  0.56446536     0.76700
O400        O  0.05659498  0.42067845  0.92005693    -0.59300
O401        O  0.09675329  0.44959431  0.95463063    -0.52400
C402        C  0.08678830  0.42532236  0.92870034     0.73300
Zr403      Zr  0.00364984  0.44590954  0.93940666     2.54700
O404        O  0.99536800  0.37717796  0.92952391    -0.79900
O405        O  0.00904284  0.45912245  0.87033756    -0.93300
Zr406      Zr  0.00488294  0.43244706  0.55084206     2.64700
O407        O  0.50031359  0.36435497  0.54614996    -0.98300
O408        O  0.00567068  0.42655156  0.62109885    -0.80300
O409        O  0.47278798  0.43793720  0.00126311    -0.83700
O410        O  0.03640416  0.43497830  0.49347917    -2.18400
O411        O  0.06014028  0.07316418  0.92991110    -0.67100
O412        O  0.09945527  0.03451681  0.95523704    -0.51600
C413        C  0.09011668  0.06341850  0.93499018     0.71700
O414        O  0.45325309  0.07012985  0.58453057    -0.60000
O415        O  0.41302386  0.04226539  0.54945693    -0.52000
C416        C  0.42293688  0.06539786  0.57622909     0.73500
O417        O  0.06217334  0.07058610  0.57763381    -0.71400
O418        O  0.10009218  0.03845448  0.54168651    -0.50100
C419        C  0.09163101  0.06380551  0.56708797     0.74900
O420        O  0.45002100  0.07921595  0.93375365    -0.66700
O421        O  0.41134349  0.04130541  0.96318515    -0.53900
C422        C  0.42023903  0.06928808  0.94087729     0.73300
Zr423      Zr  0.50473743  0.05545924  0.94943886     2.77500
O424        O  0.50696555  0.12557323  0.95386504    -0.97500
O425        O  0.50498500  0.05648526  0.87897940    -0.78300
Zr426      Zr  0.50638317  0.04789123  0.56290519     2.70100
O427        O  0.00644020  0.12218429  0.55986395    -0.79500
O428        O  0.50855002  0.03969632  0.63295441    -0.98600
Zr429      Zr  0.44202059  0.49642733  0.00480725     2.21500
Zr430      Zr  0.06908027  0.99537036  0.49947194     2.11100
O431        O  0.03815574  0.05401976  0.50375809    -2.47300
O432        O  0.47368980  0.05117624  0.00723862    -0.79300
O433        O  0.03623458  0.99679578  0.93920106    -0.71500
O434        O  0.47382036  0.49111177  0.55928995    -2.32500
O435        O  0.47291159  0.49779464  0.94609183    -2.28700
O436        O  0.03851822  0.99426892  0.55868665    -0.73300
H437        H  0.04971788  0.41212709  0.49125476     0.78700
H438        H  0.46042629  0.48988848  0.58234207     0.79800
H439        H  0.05242260  0.07621388  0.50451324     0.82000
H440        H  0.45896459  0.49965790  0.92370438     0.79600
H441        H  0.52325063  0.44731175  0.63084507     0.42700
H442        H  0.00760746  0.07415445  0.64089392     0.41700
H443        H  0.49184152  0.12598696  0.54328523     0.41300
H444        H  0.00019651  0.13089148  0.91371371     0.39300
H445        H  0.00743028  0.07724644  0.86450315     0.42400
H446        H  0.50093026  0.47012923  0.86667559     0.37200
H447        H  0.50751369  0.36254443  0.97015608     0.43300
H448        H  0.98276851  0.35621608  0.53354876     0.39700
H449        H  0.51714383  0.13422438  0.92924106     0.44600
H450        H  0.99694814  0.43793976  0.85765862     0.43400
H451        H  0.50811249  0.35398529  0.57124695     0.43500
H452        H  0.52519798  0.01946021  0.63717674     0.43800
C453        C  0.18277615  0.15702398  0.84341076    -0.02200
C454        C  0.18166911  0.33444996  0.83187853    -0.02200
C455        C  0.17893565  0.32823747  0.65799721    -0.02200
C456        C  0.18315915  0.14903477  0.66648605    -0.02200
C457        C  0.33121427  0.16580298  0.85186914    -0.02200
C458        C  0.33317539  0.15970074  0.67463790    -0.02200
C459        C  0.32866477  0.33430440  0.66364856    -0.02200
C460        C  0.33068078  0.34074558  0.84211002    -0.02200
C461        C  0.33365011  0.38061744  0.77154073    -0.05500
C462        C  0.34012104  0.34722156  0.79533935     0.00400
C463        C  0.35974905  0.32117549  0.77412950    -0.08200
C464        C  0.35147003  0.31511986  0.73472597    -0.05500
C465        C  0.33925949  0.34485213  0.70894340     0.00400
C466        C  0.33550790  0.38090702  0.72961193    -0.08100
C467        C  0.33627766  0.42097737  0.71154183     0.62300
H468        H  0.33010934  0.40815877  0.78536189     0.13000
H469        H  0.35743403  0.28670175  0.72493334     0.13000
C470        C  0.39651692  0.32567703  0.77914899     0.62500
F471        F  0.30901053  0.44167013  0.72278468    -0.22600
F472        F  0.33764392  0.42088991  0.67188035    -0.20000
F473        F  0.36364295  0.44019922  0.72480247    -0.19600
F474        F  0.41342453  0.29791870  0.75862862    -0.19700
F475        F  0.40582422  0.32345479  0.81723658    -0.20000
F476        F  0.40614363  0.36144194  0.76526449    -0.22700
C477        C  0.31086112  0.22660815  0.68278948    -0.05500
C478        C  0.33307656  0.20479519  0.66177735     0.00400
C479        C  0.34934569  0.22656460  0.63111318    -0.08200
C480        C  0.34966188  0.26798584  0.63314185    -0.05500
C481        C  0.33041822  0.28911795  0.65999496     0.00400
C482        C  0.30981921  0.26694069  0.68355452    -0.08100
C483        C  0.28350620  0.28364643  0.70814626     0.62300
H484        H  0.29646818  0.21056932  0.70326429     0.13000
H485        H  0.36449719  0.28397066  0.61271999     0.13000
C486        C  0.36156221  0.20939031  0.59307815     0.62500
F487        F  0.25660208  0.28227530  0.68654940    -0.22600
F488        F  0.28502018  0.31963588  0.72308032    -0.20000
F489        F  0.28106834  0.26150414  0.73910896    -0.19600
F490        F  0.33881229  0.18411150  0.57835039    -0.19700
F491        F  0.39114806  0.19134117  0.59748328    -0.20000
F492        F  0.36608573  0.23756532  0.56493933    -0.22700
C493        C  0.34711799  0.19141729  0.74360448    -0.05500
C494        C  0.34408938  0.15663262  0.72128326     0.00400
C495        C  0.35501849  0.12354072  0.74505352    -0.08200
C496        C  0.35571624  0.12687864  0.78724052    -0.05500
C497        C  0.34709494  0.16127371  0.80749977     0.00400
C498        C  0.35650594  0.19265401  0.78304011    -0.08100
C499        C  0.39160939  0.20778259  0.78621445     0.62300
H500        H  0.35210788  0.21825380  0.72920237     0.13000
H501        H  0.36381026  0.10218956  0.80335088     0.13000
C502        C  0.37041512  0.08592578  0.73063575     0.62500
F503        F  0.40775054  0.21007164  0.75122627    -0.22600
F504        F  0.41053110  0.18388430  0.80877610    -0.20000
F505        F  0.39154387  0.24444689  0.80008497    -0.19600
F506        F  0.36382548  0.07741617  0.69278320    -0.19700
F507        F  0.35969999  0.05484626  0.75269282    -0.20000
F508        F  0.40382807  0.08771479  0.73526772    -0.22700
C509        C  0.36498862  0.27635981  0.86348224    -0.05500
C510        C  0.33608423  0.29583516  0.85104838     0.00400
C511        C  0.30952097  0.27173194  0.85076833    -0.08200
C512        C  0.30964261  0.23548782  0.86888023    -0.05500
C513        C  0.33654636  0.21137270  0.86334908     0.00400
C514        C  0.36643982  0.23443964  0.86799259    -0.08100
C515        C  0.39920396  0.21976777  0.88295421     0.62300
H516        H  0.38625412  0.29321082  0.87049559     0.13000
H517        H  0.28662585  0.22506703  0.87817995     0.13000
C518        C  0.28872436  0.27247614  0.81740656     0.62500
F519        F  0.42466775  0.23916525  0.86486503    -0.22600
F520        F  0.40436557  0.18114773  0.87720306    -0.20000
F521        F  0.40125681  0.22723569  0.92213098    -0.19600
F522        F  0.29171287  0.30281817  0.79264938    -0.19700
F523        F  0.25803705  0.27385232  0.83203340    -0.20000
F524        F  0.29746815  0.23930079  0.79758387    -0.22700
C525        C  0.24147626  0.11823539  0.68659233    -0.05500
C526        C  0.22235213  0.14116450  0.66076857     0.00400
C527        C  0.24224135  0.16027205  0.63186711    -0.08200
C528        C  0.27636537  0.16535991  0.63797729    -0.05500
C529        C  0.29497276  0.14608277  0.66717834     0.00400
C530        C  0.27635065  0.11539663  0.68488741    -0.08100
C531        C  0.28939574  0.07459498  0.68952109     0.62300
H532        H  0.22959456  0.09975493  0.70706156     0.13000
H533        H  0.28893216  0.18379670  0.61753066     0.13000
C534        C  0.23021142  0.17395844  0.59256776     0.62500
F535        F  0.30618437  0.07081775  0.72314467    -0.22600
F536        F  0.30889013  0.06467310  0.65861525    -0.20000
F537        F  0.26455045  0.04745212  0.69088898    -0.19600
F538        F  0.22868834  0.21378380  0.59179143    -0.19700
F539        F  0.20040729  0.15847972  0.58291924    -0.20000
F540        F  0.25192138  0.16235841  0.56412132    -0.22700
C541        C  0.16512141  0.21475196  0.62480897    -0.05500
C542        C  0.18028561  0.19524015  0.65707575     0.00400
C543        C  0.19653036  0.22114724  0.68080833    -0.08200
C544        C  0.19566214  0.26129579  0.67629837    -0.05500
C545        C  0.17783648  0.28167161  0.64974345     0.00400
C546        C  0.16437974  0.25671041  0.61977316    -0.08100
C547        C  0.15246537  0.27170414  0.58074761     0.62300
H548        H  0.15489101  0.19752855  0.60210524     0.13000
H549        H  0.20616544  0.27837997  0.69898357     0.13000
C550        C  0.21369078  0.21071666  0.71559779     0.62500
F551        F  0.14973741  0.24241085  0.55384269    -0.22600
F552        F  0.17438997  0.29797162  0.56553106    -0.20000
F553        F  0.12204892  0.28816257  0.58413428    -0.19600
F554        F  0.24439256  0.22144622  0.71002973    -0.19700
F555        F  0.21742803  0.17383260  0.72553935    -0.20000
F556        F  0.19716410  0.23022538  0.74403684    -0.22700
C557        C  0.23711344  0.31925753  0.62419284    -0.05500
C558        C  0.21754863  0.34090103  0.65045972     0.00400
C559        C  0.23597044  0.37337902  0.66506996    -0.08200
C560        C  0.27083427  0.37093248  0.66917495    -0.05500
C561        C  0.29048752  0.34310217  0.65065098     0.03600
C562        C  0.27209092  0.32202748  0.62148528    -0.08100
C563        C  0.28651342  0.30160135  0.58655490     0.62300
H564        H  0.22514367  0.29912246  0.60515685     0.13000
H565        H  0.28294855  0.39388011  0.68369971     0.13000
C566        C  0.22449895  0.41481044  0.66297213     0.62500
F567        F  0.28440043  0.26213435  0.59186172    -0.22600
F568        F  0.31830881  0.31157480  0.57880484    -0.20000
F569        F  0.26878376  0.31147269  0.55388346    -0.19600
F570        F  0.19347738  0.41829510  0.64946544    -0.19700
F571        F  0.24421346  0.43511939  0.63729472    -0.20000
F572        F  0.22704766  0.43227543  0.69848599    -0.22700
C573        C  0.16467828  0.37264648  0.76680219    -0.05500
C574        C  0.16691884  0.33816955  0.78832302     0.00400
C575        C  0.15104575  0.30811978  0.76762660    -0.08200
C576        C  0.15660039  0.30543197  0.72737621    -0.05500
C577        C  0.16732179  0.33686420  0.70343729     0.00400
C578        C  0.16282375  0.37309667  0.72482373    -0.08100
C579        C  0.14685924  0.41009521  0.71011340     0.62300
H580        H  0.16342124  0.39941608  0.78262790     0.13000
H581        H  0.14847908  0.27899481  0.71465551     0.13000
C582        C  0.11836845  0.29222173  0.78157767     0.62500
F583        F  0.11781123  0.41536778  0.73002776    -0.22600
F584        F  0.13893754  0.41032761  0.67172102    -0.20000
F585        F  0.16659004  0.44149633  0.71769190    -0.19600
F586        F  0.09888929  0.32220050  0.79408873    -0.19700
F587        F  0.12232427  0.26577180  0.81083636    -0.20000
F588        F  0.10124255  0.27444294  0.75217046    -0.22700
C589        C  0.23550102  0.33385135  0.87175427    -0.05500
C590        C  0.22033619  0.34483921  0.83630637     0.00400
C591        C  0.24292454  0.36406051  0.81014099    -0.08200
C592        C  0.27486961  0.37365560  0.82276348    -0.05500
C593        C  0.29209751  0.35347751  0.85124483     0.00400
C594        C  0.26932483  0.34010591  0.88095636    -0.08100
C595        C  0.27359653  0.34806678  0.92395842     0.62300
H596        H  0.22032701  0.32168071  0.89420402     0.13000
H597        H  0.28598151  0.39828378  0.80987341     0.13000
C598        C  0.23745081  0.37428588  0.76817342     0.62500
F599        F  0.24647603  0.36651424  0.93914573    -0.22600
F600        F  0.29920129  0.37274873  0.93037427    -0.20000
F601        F  0.27657034  0.31395062  0.94447023    -0.19600
F602        F  0.21915999  0.40713283  0.76486149    -0.19700
F603        F  0.22465210  0.34314812  0.74881561    -0.20000
F604        F  0.26625863  0.38321817  0.74969017    -0.22700
C605        C  0.17480159  0.10821368  0.73457262    -0.05500
C606        C  0.16763525  0.14078932  0.71058435     0.00400
C607        C  0.15074193  0.16916384  0.73293303    -0.08200
C608        C  0.15891058  0.17448788  0.77281318    -0.05500
C609        C  0.17318671  0.14576984  0.79750039     0.00400
C610        C  0.17483713  0.10907732  0.77685275    -0.08100
C611        C  0.17317737  0.06945187  0.79588510     0.62300
H612        H  0.17929672  0.08108531  0.72052922     0.13000
H613        H  0.15148763  0.20167578  0.78447902     0.13000
C614        C  0.11821174  0.18543866  0.71964444     0.62500
F615        F  0.14451194  0.05156359  0.78473403    -0.22600
F616        F  0.17353519  0.07043251  0.83557491    -0.20000
F617        F  0.19912867  0.04706785  0.78370548    -0.19600
F618        F  0.09903210  0.15587209  0.70548539    -0.19700
F619        F  0.12215491  0.21372102  0.69194407    -0.20000
F620        F  0.10096391  0.20134053  0.75004904    -0.22700
C621        C  0.23858839  0.12052651  0.83524347    -0.05500
C622        C  0.21991804  0.14538467  0.85754205     0.00400
C623        C  0.23891089  0.16003507  0.88988758    -0.08200
C624        C  0.27414930  0.15842427  0.88854025    -0.05500
C625        C  0.29249792  0.15047939  0.85425487     0.00400
C626        C  0.27272227  0.12635715  0.82825138    -0.08100
C627        C  0.28345240  0.10827901  0.79083428     0.62300
H628        H  0.22516117  0.10131826  0.81781778     0.13000
H629        H  0.28702763  0.16924639  0.91311062     0.13000
C630        C  0.22549414  0.17840620  0.92645011     0.62500
F631        F  0.25901690  0.08846770  0.77163014    -0.22600
F632        F  0.30713165  0.08114363  0.79762098    -0.20000
F633        F  0.29249466  0.13753953  0.76620868    -0.19600
F634        F  0.23661092  0.15781900  0.95823733    -0.19700
F635        F  0.19213663  0.17908503  0.92870886    -0.20000
F636        F  0.23683117  0.21591828  0.92902016    -0.22700
C637        C  0.19652124  0.26546460  0.81674134    -0.05500
C638        C  0.18025060  0.28883500  0.84333008     0.00400
C639        C  0.16705102  0.26718461  0.87629503    -0.08200
C640        C  0.16405648  0.22563947  0.87388522    -0.05500
C641        C  0.18214476  0.20323458  0.84689091     0.00400
C642        C  0.20165802  0.22546649  0.82176090    -0.08100
C643        C  0.23202543  0.20930244  0.80467335     0.62300
H644        H  0.20898549  0.28026550  0.79330253     0.13000
H645        H  0.14954948  0.21076580  0.89555491     0.13000
C646        C  0.15957278  0.28278382  0.91655656     0.62500
F647        F  0.24429552  0.23336094  0.77822401    -0.22600
F648        F  0.22966008  0.17474477  0.78768374    -0.20000
F649        F  0.25389873  0.20610397  0.83282157    -0.19600
F650        F  0.12666964  0.27870245  0.92444352    -0.19700
F651        F  0.16861278  0.32053272  0.92226965    -0.20000
F652        F  0.17662183  0.26124869  0.94361681    -0.22700
C653        C  0.10303281  0.10988180  0.88426991    -0.05500
C654        C  0.11461677  0.08758254  0.91490770     0.00400
C655        C  0.14777025  0.09029697  0.92520517    -0.08200
C656        C  0.16828768  0.11267696  0.90158421    -0.05500
C657        C  0.15697351  0.13670095  0.87059567     0.00400
C658        C  0.12216981  0.13664743  0.86425896    -0.08100
C659        C  0.10296261  0.15999406  0.83477511     0.62300
H660        H  0.07791426  0.10602632  0.87538995     0.13000
H661        H  0.19378664  0.10968228  0.90758785     0.13000
C662        C  0.16204745  0.06985407  0.96047366     0.62500
F663        F  0.07040139  0.16351897  0.84530605    -0.22600
F664        F  0.10362823  0.14145989  0.79953629    -0.20000
F665        F  0.11418184  0.19695402  0.83206546    -0.19600
F666        F  0.15708954  0.01990494  0.43791518    -0.19700
F667        F  0.14375712  0.07854430  0.99295394    -0.20000
F668        F  0.19384441  0.08128294  0.96784703    -0.22700
C669        C  0.16752795  0.37002795  0.59768288    -0.05500
C670        C  0.15484187  0.34854917  0.62956443     0.00400
C671        C  0.11980016  0.34760554  0.63370794    -0.08200
C672        C  0.10112335  0.37258680  0.61081838    -0.05500
C673        C  0.11414952  0.39573907  0.58108199     0.00400
C674        C  0.14807427  0.39338494  0.57338005    -0.08100
C675        C  0.16418896  0.41543026  0.54021809     0.62300
H676        H  0.19331401  0.36916996  0.59169255     0.13000
H677        H  0.07534115  0.37465926  0.61720004     0.13000
C678        C  0.10011053  0.32281613  0.66222560     0.62500
F679        F  0.19683063  0.40596763  0.53594401    -0.22600
F680        F  0.16245350  0.45463264  0.54712972    -0.20000
F681        F  0.14576058  0.40388119  0.00303387    -0.19600
F682        F  0.09936977  0.33983921  0.69822719    -0.19700
F683        F  0.11209794  0.28601198  0.66462997    -0.20000
F684        F  0.06796621  0.31867811  0.65047745    -0.22700
C685        C  0.34547687  0.11551667  0.61628586    -0.05500
C686        C  0.35777754  0.13749112  0.64765136     0.00400
C687        C  0.39268354  0.13726695  0.65219732    -0.08200
C688        C  0.41150013  0.11071420  0.63084285    -0.05500
C689        C  0.39893142  0.08894461  0.59983596     0.00400
C690        C  0.36518943  0.09303535  0.59146221    -0.08100
C691        C  0.34957935  0.07477464  0.55613412     0.62300
H692        H  0.31990333  0.11694857  0.60965781     0.13000
H693        H  0.43735009  0.10915454  0.63718297     0.13000
C694        C  0.41259144  0.16656688  0.67489980     0.62500
F695        F  0.31699823  0.08459152  0.55220300    -0.22600
F696        F  0.35120577  0.03515248  0.55923665    -0.20000
F697        F  0.36864518  0.08523030  0.02142721    -0.19600
F698        F  0.42357213  0.15055700  0.70904003    -0.19700
F699        F  0.39559376  0.19959241  0.68253706    -0.20000
F700        F  0.43966835  0.17793576  0.65353014    -0.22700
C701        C  0.13077379  0.13819953  0.63057564    -0.05500
C702        C  0.16223476  0.12380438  0.63798128     0.00400
C703        C  0.17047379  0.08747015  0.61938147    -0.08200
C704        C  0.14722597  0.07016901  0.59456850    -0.05500
C705        C  0.11703454  0.08687594  0.58685948     0.00400
C706        C  0.11005152  0.12336553  0.60252742    -0.08100
C707        C  0.08143669  0.14812452  0.58962661     0.62300
H708        H  0.12281302  0.16391653  0.64464979     0.13000
H709        H  0.15178021  0.04227513  0.58178575     0.13000
C710        C  0.20121370  0.06362446  0.62637705     0.62500
F711        F  0.07412253  0.14171658  0.55107690    -0.22600
F712        F  0.08875209  0.18700166  0.59306234    -0.20000
F713        F  0.05455482  0.14007357  0.61258049    -0.19600
F714        F  0.20386468  0.05509480  0.66510453    -0.19700
F715        F  0.22863043  0.08239752  0.61267853    -0.20000
F716        F  0.20052641  0.02841962  0.60759381    -0.22700
C717        C  0.37323393  0.39372427  0.84997805    -0.05500
C718        C  0.35421874  0.36470050  0.86855650     0.00400
C719        C  0.36057872  0.35922052  0.90976882    -0.08200
C720        C  0.38017897  0.38633386  0.92866740    -0.05500
C721        C  0.39703264  0.41505978  0.90906194     0.00400
C722        C  0.39546026  0.41725761  0.86861475    -0.08100
C723        C  0.41787796  0.44123644  0.84256455     0.62300
H724        H  0.37381078  0.39757225  0.81948367     0.13000
H725        H  0.38560426  0.38242926  0.95917020     0.13000
C726        C  0.35298005  0.32505137  0.93696651     0.62500
F727        F  0.43668317  0.41650068  0.82051593    -0.22600
F728        F  0.43860950  0.46525366  0.86237768    -0.20000
F729        F  0.39936703  0.46370866  0.81775291    -0.19600
F730        F  0.38164395  0.30515006  0.94380429    -0.19700
F731        F  0.33036044  0.29933124  0.92415313    -0.20000
F732        F  0.34174199  0.33825716  0.97242559    -0.22700
C733        C  0.38504341  0.12680913  0.93833717    -0.05500
C734        C  0.39422085  0.09186480  0.92201093     0.00400
C735        C  0.37620150  0.07751608  0.89067468    -0.08200
C736        C  0.35181956  0.10068081  0.87442776    -0.05500
C737        C  0.34835195  0.13979640  0.88360948     0.00400
C738        C  0.36036365  0.15020274  0.92185699    -0.08100
C739        C  0.34329326  0.17564246  0.95194582     0.62300
H740        H  0.39626220  0.13452158  0.96560760     0.13000
H741        H  0.33598106  0.08849227  0.85324281     0.13000
C742        C  0.38415210  0.03905684  0.87279223     0.62500
F743        F  0.32000389  0.15353270  0.97090154    -0.22600
F744        F  0.32857870  0.20807409  0.93770440    -0.20000
F745        F  0.36523725  0.18847212  0.97951642    -0.19600
F746        F  0.38007092  0.00994440  0.89989331    -0.19700
F747        F  0.41297151  0.53133381  0.86384905    -0.20000
F748        F  0.36436365  0.03108244  0.84139638    -0.22700
C749        C  0.12757924  0.34660144  0.86646659    -0.05500
C750        C  0.15921361  0.36112148  0.85871133     0.00400
C751        C  0.16608978  0.39902111  0.87513289    -0.08200
C752        C  0.14225161  0.41706300  0.89907208    -0.05500
C753        C  0.11131601  0.40155601  0.90623066     0.00400
C754        C  0.10419190  0.36482749  0.89023076    -0.08100
C755        C  0.07269055  0.34323723  0.89953520     0.62300
H756        H  0.12168171  0.31864131  0.85562655     0.13000
H757        H  0.14718005  0.44483835  0.91192971     0.13000
C758        C  0.19634388  0.42370949  0.86715811     0.62500
F759        F  0.07346976  0.30531361  0.88720980    -0.22600
F760        F  0.04674331  0.36073777  0.88109586    -0.20000
F761        F  0.06757192  0.34274511  0.93919101    -0.19600
F762        F  0.20162625  0.42698178  0.82823772    -0.19700
F763        F  0.22336436  0.40884801  0.88513249    -0.20000
F764        F  0.19316628  0.46114715  0.88053216    -0.22700
C765        C  0.40745551  0.37942677  0.61722367    -0.05500
C766        C  0.39504172  0.40228767  0.58726151     0.00400
C767        C  0.36105036  0.40147305  0.58039496    -0.08200
C768        C  0.34111102  0.37944700  0.60547406    -0.05500
C769        C  0.35348244  0.35487607  0.63537007     0.00400
C770        C  0.38855493  0.35352212  0.63891261    -0.08100
C771        C  0.40999491  0.32687982  0.66328460     0.62300
H772        H  0.43341064  0.38047984  0.62326029     0.13000
H773        H  0.31523983  0.38235888  0.60139036     0.13000
C774        C  0.34532228  0.42410214  0.54754633     0.62500
F775        F  0.43460902  0.31197191  0.64015352    -0.22600
F776        F  0.39480917  0.29572037  0.67920462    -0.20000
F777        F  0.42434692  0.34805137  0.69241968    -0.19600
F778        F  0.36014444  0.41684173  0.01247319    -0.19700
F779        F  0.34863312  0.46305690  0.55437747    -0.20000
F780        F  0.31231854  0.41623101  0.54399438    -0.22700
O781        O  0.45039090  0.92861431  0.42056571    -0.75000
O782        O  0.41179195  0.95969732  0.45683000    -0.53900
C783        C  0.42101341  0.93679664  0.42965963     0.78700
O784        O  0.06025609  0.91345449  0.06666655    -0.59600
O785        O  0.10018895  0.94759794  0.03663730    -0.52700
C786        C  0.09058217  0.92062702  0.05968262     0.70700
O787        O  0.44891288  0.90891034  0.06401140    -0.74200
O788        O  0.40992389  0.95046007  0.04300804    -0.54700
C789        C  0.41909476  0.92033164  0.06184683     0.76700
O790        O  0.05625678  0.92232874  0.41939772    -0.59300
O791        O  0.09678858  0.95121475  0.45332349    -0.52400
C792        C  0.08653381  0.92700562  0.42747701     0.73300
Zr793      Zr  0.00382561  0.94658522  0.44126236     2.54700
O794        O  0.99766280  0.87680841  0.43966770    -0.79900
O795        O  0.00676061  0.95398367  0.37112938    -0.93300
Zr796      Zr  0.00527701  0.93605319  0.05346521     2.64700
O797        O  0.50471123  0.86031292  0.05499170    -0.98300
O798        O  0.00759897  0.93899753  0.12387110    -0.80300
O799        O  0.47188393  0.94170217  0.49634868    -0.83700
O800        O  0.03597807  0.93520267  0.99544408    -2.18400
O801        O  0.05868456  0.57474352  0.43012968    -0.67100
O802        O  0.09790305  0.53521432  0.45428240    -0.51600
C803        C  0.08856612  0.56423406  0.43410221     0.71700
O804        O  0.45337705  0.56862707  0.08360846    -0.60000
O805        O  0.41317972  0.53794636  0.05078411    -0.52000
C806        C  0.42303375  0.56224463  0.07638733     0.73500
O807        O  0.05965709  0.56502964  0.08192946    -0.71400
O808        O  0.09798381  0.53609342  0.04396369    -0.50100
C809        C  0.08911170  0.55975768  0.07081301     0.74900
O810        O  0.44897745  0.57732397  0.43030879    -0.66700
O811        O  0.41083171  0.54142119  0.46292992    -0.53900
C812        C  0.41932830  0.56818745  0.43903122     0.73300
Zr813      Zr  0.50419681  0.55552102  0.44668326     2.77500
O814        O  0.50719215  0.62557128  0.45098453    -0.97500
O815        O  0.50285171  0.55677113  0.37616740    -0.78300
Zr816      Zr  0.50722254  0.54773828  0.06264067     2.70100
O817        O  0.00245852  0.61624097  0.05936760    -0.79500
O818        O  0.50800199  0.54564167  0.13319619    -0.98600
Zr819      Zr  0.44098910  0.99957843  0.50302667     2.21500
Zr820      Zr  0.06806669  0.49333045  0.00013760     2.11100
O821        O  0.03682577  0.55149534  0.00651501    -2.47300
O822        O  0.47336813  0.55370006  0.50464870    -0.79300
O823        O  0.03563938  0.49891011  0.44002491    -0.71500
O824        O  0.47293447  0.98700665  0.05934417    -2.32500
O825        O  0.47231306  0.00317500  0.44438505    -2.28700
O826        O  0.03689670  0.48884947  0.05875587    -0.73300
H827        H  0.04892935  0.91200071  0.99405916     0.78700
H828        H  0.45949721  0.98498647  0.08229446     0.79800
H829        H  0.05092831  0.57378715  0.00800714     0.82000
H830        H  0.45835578  0.00554819  0.42202989     0.79600
H831        H  0.51911637  0.91529737  0.12991172     0.42700
H832        H  0.02686406  0.52798493  0.14044912     0.41700
H833        H  0.49401606  0.62474425  0.03804083     0.41300
H834        H  0.02361219  0.63146541  0.46944174     0.39300
H835        H  0.98359154  0.54911597  0.36832617     0.42400
H836        H  0.50448498  0.93117106  0.35820304     0.37200
H837        H  0.48337973  0.86923534  0.45590038     0.43300
H838        H  0.99377490  0.85984216  0.08232153     0.39700
H839        H  0.48496474  0.63390464  0.45847895     0.44600
H840        H  0.99210421  0.93379261  0.36080724     0.43400
H841        H  0.48814787  0.85169287  0.03608060     0.43500
H842        H  0.52911425  0.53348418  0.13984678     0.43800
C843        C  0.18142156  0.65738662  0.34185441    -0.02200
C844        C  0.18188357  0.83491619  0.33199895    -0.02200
C845        C  0.17962498  0.82751443  0.15835097    -0.02200
C846        C  0.18246044  0.64770682  0.16579697    -0.02200
C847        C  0.33018128  0.66479810  0.35089445    -0.02200
C848        C  0.33267542  0.65576723  0.17375939    -0.02200
C849        C  0.32992267  0.82990132  0.16312792    -0.02200
C850        C  0.33155703  0.83963408  0.34086799    -0.02200
C851        C  0.33499027  0.87824666  0.26969594    -0.05500
C852        C  0.34110720  0.84525870  0.29415393     0.00400
C853        C  0.36102006  0.81892584  0.27370241    -0.08200
C854        C  0.35240172  0.81161146  0.23460148    -0.05500
C855        C  0.34060908  0.84097218  0.20811971     0.00400
C856        C  0.33726217  0.87753934  0.22781872    -0.08100
C857        C  0.34029844  0.91697608  0.20877059     0.62300
H858        H  0.33150604  0.90609436  0.28290191     0.13000
H859        H  0.35796571  0.78284897  0.22540080     0.13000
C860        C  0.39768759  0.82544186  0.27788835     0.62500
F861        F  0.31548701  0.94084646  0.22146642    -0.22600
F862        F  0.33929662  0.91625503  0.16914474    -0.20000
F863        F  0.36986147  0.93299837  0.21946861    -0.19600
F864        F  0.41534989  0.79731867  0.25885618    -0.19700
F865        F  0.40734185  0.82591414  0.31597185    -0.20000
F866        F  0.40599667  0.86079050  0.26178668    -0.22700
C867        C  0.31036880  0.72249513  0.18040665    -0.05500
C868        C  0.33284717  0.70053790  0.16022288     0.00400
C869        C  0.35019006  0.72214817  0.13036843    -0.08200
C870        C  0.35144416  0.76352188  0.13317863    -0.05500
C871        C  0.33187562  0.78476482  0.15971401     0.00400
C872        C  0.31049169  0.76274813  0.18231989    -0.08100
C873        C  0.28492472  0.77928510  0.20793730     0.62300
H874        H  0.29524107  0.70652638  0.20011026     0.13000
H875        H  0.36665507  0.77939098  0.11305536     0.13000
C876        C  0.36169240  0.70517573  0.09192327     0.62500
F877        F  0.25733618  0.77797621  0.18746215    -0.22600
F878        F  0.28650589  0.81533418  0.22267636    -0.20000
F879        F  0.28408407  0.75671847  0.23889181    -0.19600
F880        F  0.33819612  0.68096460  0.07701378    -0.19700
F881        F  0.39077055  0.68586566  0.09564978    -0.20000
F882        F  0.36671094  0.73371326  0.06426693    -0.22700
C883        C  0.34650439  0.68901802  0.24233796    -0.05500
C884        C  0.34353281  0.65378000  0.22053348     0.00400
C885        C  0.35438495  0.62116184  0.24490905    -0.08200
C886        C  0.35504696  0.62521866  0.28699928    -0.05500
C887        C  0.34629931  0.65988509  0.30666549     0.00400
C888        C  0.35599620  0.69089147  0.28180413    -0.08100
C889        C  0.39147503  0.70526107  0.28459611     0.62300
H890        H  0.35146695  0.71560105  0.22749300     0.13000
H891        H  0.36315050  0.60081877  0.30351321     0.13000
C892        C  0.36977104  0.58335991  0.23116784     0.62500
F893        F  0.40749210  0.70655952  0.24952693    -0.22600
F894        F  0.41011169  0.68118904  0.30729447    -0.20000
F895        F  0.39240741  0.74214725  0.29802503    -0.19600
F896        F  0.36283241  0.57399131  0.19360858    -0.19700
F897        F  0.35929706  0.55274477  0.25403909    -0.20000
F898        F  0.40321411  0.58549702  0.23534960    -0.22700
C899        C  0.36557382  0.77470339  0.36112925    -0.05500
C900        C  0.33655698  0.79472384  0.35004860     0.00400
C901        C  0.30963333  0.77116613  0.35097413    -0.08200
C902        C  0.30970350  0.73497181  0.36921309    -0.05500
C903        C  0.33611951  0.71030290  0.36250349     0.00400
C904        C  0.36642106  0.73273503  0.36596925    -0.08100
C905        C  0.39851853  0.71731181  0.38201352     0.62300
H906        H  0.38723338  0.79124038  0.36718168     0.13000
H907        H  0.28651040  0.72483797  0.37812619     0.13000
C908        C  0.28844812  0.77163517  0.31794855     0.62500
F909        F  0.42475395  0.73678373  0.36567505    -0.22600
F910        F  0.40342986  0.67877247  0.37539073    -0.20000
F911        F  0.39922057  0.72361702  0.42147936    -0.19600
F912        F  0.29183554  0.80112325  0.29218942    -0.19700
F913        F  0.25785673  0.77406742  0.33299104    -0.20000
F914        F  0.29649555  0.73772607  0.29900731    -0.22700
C915        C  0.24050979  0.61556947  0.18638685    -0.05500
C916        C  0.22160353  0.63869285  0.16036649     0.00400
C917        C  0.24169387  0.65666100  0.13098638    -0.08200
C918        C  0.27597775  0.66089632  0.13663000    -0.05500
C919        C  0.29442054  0.64206747  0.16624642     0.00400
C920        C  0.27545777  0.61217342  0.18476533    -0.08100
C921        C  0.28840444  0.57142074  0.19029715     0.62300
H922        H  0.22833692  0.59761765  0.20712382     0.13000
H923        H  0.28877062  0.67857859  0.11574209     0.13000
C924        C  0.22958131  0.67022343  0.09171863     0.62500
F925        F  0.30546611  0.56832596  0.22380748    -0.22600
F926        F  0.30778471  0.56085913  0.15944592    -0.20000
F927        F  0.26349335  0.54441981  0.19255188    -0.19600
F928        F  0.22946943  0.71007937  0.09033112    -0.19700
F929        F  0.19910026  0.65617911  0.08290442    -0.20000
F930        F  0.25042581  0.65698398  0.06310684    -0.22700
C931        C  0.16529412  0.71402047  0.12426714    -0.05500
C932        C  0.18047382  0.69404290  0.15623431     0.00400
C933        C  0.19687809  0.71964384  0.18028668    -0.08200
C934        C  0.19580530  0.75996915  0.17647327    -0.05500
C935        C  0.17788123  0.78078711  0.15018607     0.00400
C936        C  0.16431215  0.75610611  0.11999395    -0.08100
C937        C  0.15144956  0.77161698  0.08164376     0.62300
H938        H  0.15464001  0.69705717  0.10159093     0.13000
H939        H  0.20645016  0.77679478  0.19928962     0.13000
C940        C  0.21327569  0.70852974  0.21552775     0.62500
F941        F  0.14924619  0.74294720  0.05401870    -0.22600
F942        F  0.17230702  0.79923691  0.06672901    -0.20000
F943        F  0.12055408  0.78651877  0.08614477    -0.19600
F944        F  0.24416309  0.71881254  0.21167134    -0.19700
F945        F  0.21655665  0.67141111  0.22502269    -0.20000
F946        F  0.19633027  0.72792765  0.24364509    -0.22700
C947        C  0.23758357  0.81632416  0.12491051    -0.05500
C948        C  0.21854273  0.83906690  0.15075339     0.00400
C949        C  0.23781042  0.87111323  0.16496782    -0.08200
C950        C  0.27268247  0.86777260  0.16865938    -0.05500
C951        C  0.29160489  0.83886055  0.15069724     0.03600
C952        C  0.27260541  0.81751297  0.12227337    -0.08100
C953        C  0.28661773  0.79416264  0.08897797     0.62300
H954        H  0.22506737  0.79636218  0.10617585     0.13000
H955        H  0.28538188  0.89069693  0.18271990     0.13000
C956        C  0.22724869  0.91287401  0.16275366     0.62500
F957        F  0.28553790  0.75535192  0.09818630    -0.22600
F958        F  0.31796877  0.80456363  0.07925364    -0.20000
F959        F  0.26801583  0.80001230  0.05605481    -0.19600
F960        F  0.19548323  0.91710901  0.15252074    -0.19700
F961        F  0.24552042  0.93152096  0.13446279    -0.20000
F962        F  0.23278750  0.93145071  0.19727312    -0.22700
C963        C  0.16560639  0.87306420  0.26669093    -0.05500
C964        C  0.16733476  0.83880384  0.28847201     0.00400
C965        C  0.15107650  0.80897170  0.26807769    -0.08200
C966        C  0.15730636  0.80537340  0.22804792    -0.05500
C967        C  0.16818685  0.83654146  0.20374288     0.00400
C968        C  0.16386660  0.87310760  0.22476003    -0.08100
C969        C  0.14837288  0.91037261  0.20991998     0.62300
H970        H  0.16442589  0.89998314  0.28216002     0.13000
H971        H  0.14926038  0.77863988  0.21586705     0.13000
C972        C  0.11747590  0.79558031  0.28147149     0.62500
F973        F  0.11976487  0.91674608  0.23042625    -0.22600
F974        F  0.13975160  0.91035970  0.17170019    -0.20000
F975        F  0.16892728  0.94126588  0.21673550    -0.19600
F976        F  0.09964556  0.82689978  0.29424813    -0.19700
F977        F  0.11986956  0.76847481  0.31044714    -0.20000
F978        F  0.09961421  0.77955384  0.25165809    -0.22700
C979        C  0.23619306  0.83514500  0.37184566    -0.05500
C980        C  0.22081163  0.84510653  0.33617572     0.00400
C981        C  0.24362352  0.86299544  0.30917514    -0.08200
C982        C  0.27574761  0.87256386  0.32116127    -0.05500
C983        C  0.29300263  0.85281401  0.34978625     0.00400
C984        C  0.27036605  0.84101669  0.38027772    -0.08100
C985        C  0.27555469  0.85126121  0.42256792     0.62300
H986        H  0.22097723  0.82419087  0.39491130     0.13000
H987        H  0.28713939  0.89644686  0.30724485     0.13000
C988        C  0.23840601  0.87170894  0.26684487     0.62500
F989        F  0.24853930  0.86989237  0.43774483    -0.22600
F990        F  0.30099888  0.87678613  0.42665277    -0.20000
F991        F  0.27966824  0.81838165  0.44466760    -0.19600
F992        F  0.22090657  0.90503501  0.26233248    -0.19700
F993        F  0.22498470  0.84026001  0.24865011    -0.20000
F994        F  0.26744178  0.87898486  0.24808871    -0.22700
C995        C  0.17300491  0.60788894  0.23362628    -0.05500
C996        C  0.16620183  0.64034165  0.20954986     0.00400
C997        C  0.14936202  0.66915991  0.23158499    -0.08200
C998        C  0.15724024  0.67441101  0.27157067    -0.05500
C999        C  0.17181247  0.64593750  0.29614105     0.00400
C1000       C  0.17318194  0.60907416  0.27578702    -0.08100
C1001       C  0.17114196  0.56955109  0.29489116     0.62300
H1002       H  0.17721436  0.58066641  0.21967219     0.13000
H1003       H  0.15007321  0.70169173  0.28325361     0.13000
C1004       C  0.11776662  0.68743210  0.21748221     0.62500
F1005       F  0.14173516  0.55266894  0.28486982    -0.22600
F1006       F  0.17273118  0.57043881  0.33449467    -0.20000
F1007       F  0.19620377  0.54635472  0.28165747    -0.19600
F1008       F  0.09730432  0.65901171  0.20351444    -0.19700
F1009       F  0.12317100  0.71491504  0.18939728    -0.20000
F1010       F  0.10107421  0.70515149  0.24731227    -0.22700
C1011       C  0.23719237  0.62066228  0.33361388    -0.05500
C1012       C  0.21854670  0.64554560  0.35593580     0.00400
C1013       C  0.23751654  0.66040303  0.38820229    -0.08200
C1014       C  0.27277369  0.65856006  0.38705546    -0.05500
C1015       C  0.29124220  0.65017266  0.35299875     0.00400
C1016       C  0.27140709  0.62627145  0.32690776    -0.08100
C1017       C  0.28232358  0.60819088  0.28966575     0.62300
H1018       H  0.22376183  0.60156769  0.31598896     0.13000
H1019       H  0.28565513  0.67017616  0.41124771     0.13000
C1020       C  0.22403269  0.68207615  0.42280555     0.62500
F1021       F  0.25793680  0.58860985  0.27019769    -0.22600
F1022       F  0.30575095  0.58086608  0.29680603    -0.20000
F1023       F  0.29177035  0.63742027  0.26522701    -0.19600
F1024       F  0.23830727  0.66814963  0.45636574    -0.19700
F1025       F  0.19095608  0.67847169  0.42759695    -0.20000
F1026       F  0.23174419  0.72077221  0.41891854    -0.22700
C1027       C  0.19599464  0.76608326  0.31640585    -0.05500
C1028       C  0.18005348  0.78928270  0.34325739     0.00400
C1029       C  0.16635991  0.76733231  0.37573703    -0.08200
C1030       C  0.16305328  0.72585886  0.37279994    -0.05500
C1031       C  0.18093121  0.70360571  0.34550149     0.00400
C1032       C  0.20064249  0.72603099  0.32077214    -0.08100
C1033       C  0.23118861  0.71037843  0.30404769     0.62300
H1034       H  0.20852704  0.78103444  0.29314669     0.13000
H1035       H  0.14847213  0.71085181  0.39430820     0.13000
C1036       C  0.15839514  0.78261580  0.41591663     0.62500
F1037       F  0.24351270  0.73514986  0.27788693    -0.22600
F1038       F  0.22894820  0.67593434  0.28688031    -0.20000
F1039       F  0.25262354  0.70683681  0.33266256    -0.19600
F1040       F  0.12519323  0.77999335  0.42252986    -0.19700
F1041       F  0.16866038  0.81983946  0.42222076    -0.20000
F1042       F  0.17391948  0.75993663  0.44335029    -0.22700
C1043       C  0.10132399  0.61067734  0.38282005    -0.05500
C1044       C  0.11306038  0.58776531  0.41303600     0.00400
C1045       C  0.14645243  0.58956529  0.42245579    -0.08200
C1046       C  0.16678481  0.61266613  0.39938625    -0.05500
C1047       C  0.15544522  0.63716606  0.36887833     0.00400
C1048       C  0.12057024  0.63747767  0.36275434    -0.08100
C1049       C  0.10118752  0.66203088  0.33424405     0.62300
H1050       H  0.07595834  0.60757158  0.37462179     0.13000
H1051       H  0.19229032  0.60974010  0.40526319     0.13000
C1052       C  0.16132207  0.56698685  0.45601967     0.62500
F1053       F  0.06910858  0.66659573  0.34634458    -0.22600
F1054       F  0.10029313  0.64415886  0.29864088    -0.20000
F1055       F  0.11318919  0.69863495  0.33129676    -0.19600
F1056       F  0.15892996  0.52426552  0.94587386    -0.19700
F1057       F  0.14457949  0.57500916  0.48983918    -0.20000
F1058       F  0.19375542  0.57648410  0.46215088    -0.22700
C1059       C  0.16853393  0.87157919  0.09920281    -0.05500
C1060       C  0.15567588  0.84868330  0.13003282     0.00400
C1061       C  0.12054819  0.84727898  0.13348167    -0.08200
C1062       C  0.10169196  0.87083929  0.10921715    -0.05500
C1063       C  0.11478810  0.89580056  0.08106902     0.00400
C1064       C  0.14913818  0.89576881  0.07545886    -0.08100
C1065       C  0.16580952  0.92146011  0.04542133     0.62300
H1066       H  0.19444877  0.87144381  0.09391019     0.13000
H1067       H  0.07562311  0.87104589  0.11381549     0.13000
C1068       C  0.10096100  0.82382765  0.16320873     0.62500
F1069       F  0.19915128  0.91514931  0.04355631    -0.22600
F1070       F  0.16114508  0.95979142  0.05484560    -0.20000
F1071       F  0.14582919  0.90494737  0.50317073    -0.19600
F1072       F  0.10103594  0.84222602  0.19851051    -0.19700
F1073       F  0.11264644  0.78700920  0.16662707    -0.20000
F1074       F  0.06853668  0.81970475  0.15265616    -0.22700
C1075       C  0.34526462  0.61183514  0.11526573    -0.05500
C1076       C  0.35730818  0.63327820  0.14717342     0.00400
C1077       C  0.39215101  0.63273731  0.15222655    -0.08200
C1078       C  0.41084969  0.60543253  0.13196488    -0.05500
C1079       C  0.39877588  0.58503982  0.09992170     0.00400
C1080       C  0.36551024  0.59057649  0.08996320    -0.08100
C1081       C  0.35140313  0.57639212  0.05191834     0.62300
H1082       H  0.31974947  0.61323117  0.10822634     0.13000
H1083       H  0.43649091  0.60307337  0.13925178     0.13000
C1084       C  0.41240531  0.66259916  0.17353980     0.62500
F1085       F  0.32005634  0.58989340  0.04564499    -0.22600
F1086       F  0.35016298  0.53665703  0.05188633    -0.20000
F1087       F  0.37117451  0.58924189  0.51880365    -0.19600
F1088       F  0.42521847  0.64701377  0.20698898    -0.19700
F1089       F  0.39520638  0.69518921  0.18204142    -0.20000
F1090       F  0.43825316  0.67441893  0.15032459    -0.22700
C1091       C  0.13000665  0.63703973  0.13022955    -0.05500
C1092       C  0.16123832  0.62215483  0.13791453     0.00400
C1093       C  0.16832818  0.58426199  0.12180152    -0.08200
C1094       C  0.14405196  0.56582073  0.09938704    -0.05500
C1095       C  0.11410101  0.58278183  0.09124113     0.00400
C1096       C  0.10773456  0.62024528  0.10505010    -0.08100
C1097       C  0.07805211  0.64368800  0.09295678     0.62300
H1098       H  0.12288967  0.66360408  0.14321825     0.13000
H1099       H  0.14774720  0.53700255  0.08837371     0.13000
C1100       C  0.19923423  0.56036074  0.12805223     0.62500
F1101       F  0.07298481  0.64018415  0.05352098    -0.22600
F1102       F  0.08210294  0.68260973  0.10060790    -0.20000
F1103       F  0.05086392  0.63113732  0.11315127    -0.19600
F1104       F  0.20283364  0.55185278  0.16668195    -0.19700
F1105       F  0.22632290  0.57900327  0.11336377    -0.20000
F1106       F  0.19820233  0.52509764  0.10936167    -0.22700
C1107       C  0.37380982  0.89321512  0.34849864    -0.05500
C1108       C  0.35527518  0.86374192  0.36711468     0.00400
C1109       C  0.36190484  0.85841133  0.40826684    -0.08200
C1110       C  0.38122441  0.88598067  0.42712505    -0.05500
C1111       C  0.39664600  0.91603817  0.40775785     0.00400
C1112       C  0.39499967  0.91810095  0.36727139    -0.08100
C1113       C  0.41623302  0.94375912  0.34136297     0.62300
H1114       H  0.37451938  0.89670204  0.31795303     0.13000
H1115       H  0.38712489  0.88189494  0.45745732     0.13000
C1116       C  0.35374395  0.82481078  0.43591057     0.62500
F1117       F  0.43596521  0.92055861  0.31875159    -0.22600
F1118       F  0.43609044  0.96878520  0.36127079    -0.20000
F1119       F  0.39653474  0.96541546  0.31713683    -0.19600
F1120       F  0.38235434  0.80556564  0.44471136    -0.19700
F1121       F  0.33194491  0.79821867  0.42287496    -0.20000
F1122       F  0.34111593  0.83894118  0.47031343    -0.22700
C1123       C  0.38418598  0.62569224  0.43674722    -0.05500
C1124       C  0.39303483  0.59053768  0.42052885     0.00400
C1125       C  0.37456721  0.57590852  0.38970273    -0.08200
C1126       C  0.35007335  0.59913713  0.37366349    -0.05500
C1127       C  0.34686573  0.63836842  0.38271340     0.00400
C1128       C  0.35902428  0.64873719  0.42085374    -0.08100
C1129       C  0.34155160  0.67371898  0.45109586     0.62300
H1130       H  0.39610705  0.63382845  0.46344596     0.13000
H1131       H  0.33406522  0.58694867  0.35266065     0.13000
C1132       C  0.38203657  0.53698265  0.37233892     0.62500
F1133       F  0.31618044  0.65253949  0.46706717    -0.22600
F1134       F  0.32952826  0.70790869  0.43737736    -0.20000
F1135       F  0.36230300  0.68354470  0.48110801    -0.19600
F1136       F  0.37725865  0.50828620  0.39972903    -0.19700
F1137       F  0.41073276  0.03554211  0.36067492    -0.20000
F1138       F  0.36238919  0.52914193  0.34078024    -0.22700
C1139       C  0.12748788  0.84715754  0.36660192    -0.05500
C1140       C  0.15917331  0.86159589  0.35858378     0.00400
C1141       C  0.16560076  0.90012375  0.37341024    -0.08200
C1142       C  0.14168576  0.91871307  0.39684090    -0.05500
C1143       C  0.11083469  0.90317232  0.40464630     0.00400
C1144       C  0.10370158  0.86614603  0.38928122    -0.08100
C1145       C  0.07156846  0.84533452  0.39768844     0.62300
H1146       H  0.12160493  0.81899524  0.35634282     0.13000
H1147       H  0.14659092  0.94683837  0.40890229     0.13000
C1148       C  0.19583517  0.92448164  0.36469045     0.62500
F1149       F  0.07186715  0.80737852  0.38542028    -0.22600
F1150       F  0.04626619  0.86349785  0.37853548    -0.20000
F1151       F  0.06557284  0.84500074  0.43716675    -0.19600
F1152       F  0.20205194  0.92554399  0.32584511    -0.19700
F1153       F  0.22246580  0.91063332  0.38425990    -0.20000
F1154       F  0.19214325  0.96260336  0.37571854    -0.22700
C1155       C  0.40801305  0.87519852  0.11524887    -0.05500
C1156       C  0.39507369  0.89738486  0.08505522     0.00400
C1157       C  0.36107878  0.89593771  0.07858201    -0.08200
C1158       C  0.34162184  0.87361806  0.10384266    -0.05500
C1159       C  0.35442262  0.85014624  0.13431212     0.00400
C1160       C  0.38950493  0.84957773  0.13779996    -0.08100
C1161       C  0.41118773  0.82397129  0.16295044     0.62300
H1162       H  0.43401786  0.87683604  0.12091865     0.13000
H1163       H  0.31573216  0.87572958  0.09960337     0.13000
C1164       C  0.34481698  0.91796874  0.04576951     0.62500
F1165       F  0.43578188  0.80844982  0.14023975    -0.22600
F1166       F  0.39611259  0.79329635  0.18004141    -0.20000
F1167       F  0.42558942  0.84624873  0.19120399    -0.19600
F1168       F  0.36072277  0.91400607  0.51024927    -0.19700
F1169       F  0.34686217  0.95704804  0.05261813    -0.20000
F1170       F  0.31210376  0.90855721  0.04195168    -0.22700
O1171       O  0.44881194  0.92452601  0.92136062    -0.75000
O1172       O  0.41029526  0.95561004  0.95765274    -0.53900
C1173       C  0.41943130  0.93244432  0.93076990     0.78700
O1174       O  0.05941546  0.91628863  0.56862610    -0.59600
O1175       O  0.09970486  0.94884251  0.53749841    -0.52700
C1176       C  0.08970551  0.92194741  0.56038102     0.70700
O1177       O  0.44823390  0.91547448  0.56673750    -0.74200
O1178       O  0.40912248  0.95501619  0.54258511    -0.54700
C1179       C  0.41824774  0.92571567  0.56278776     0.76700
O1180       O  0.05599799  0.91694550  0.91841053    -0.59300
O1181       O  0.09675858  0.94755379  0.95026024    -0.52400
C1182       C  0.08637772  0.92261116  0.92522519     0.73300
Zr1183     Zr  0.00325525  0.94086337  0.93974486     2.54700
O1184       O  0.99633580  0.87112192  0.94004850    -0.79900
O1185       O  0.00600756  0.94524791  0.86940477    -0.93300
Zr1186     Zr  0.00465245  0.93914241  0.55520927     2.64700
O1187       O  0.49788798  0.86550650  0.55252411    -0.98300
O1188       O  0.00453416  0.93924653  0.62571173    -0.80300
O1189       O  0.47173505  0.93713115  0.99465158    -0.83700
O1190       O  0.03567230  0.93939777  0.49735510    -2.18400
O1191       O  0.05854638  0.57611552  0.93314951    -0.67100
O1192       O  0.09725868  0.53549028  0.95662247    -0.51600
C1193       C  0.08824834  0.56461824  0.93633751     0.71700
O1194       O  0.45293146  0.56882398  0.58135838    -0.60000
O1195       O  0.41281853  0.53787451  0.54870190    -0.52000
C1196       C  0.42261750  0.56239734  0.57417627     0.73500
O1197       O  0.06105808  0.56406502  0.57790238    -0.71400
O1198       O  0.09901616  0.53495198  0.53947848    -0.50100
C1199       C  0.09041959  0.55877992  0.56626874     0.74900
O1200       O  0.44989630  0.57608139  0.93115814    -0.66700
O1201       O  0.41152276  0.54150423  0.96473691    -0.53900
C1202       C  0.42011343  0.56759855  0.94004574     0.73300
Zr1203     Zr  0.50491260  0.55397520  0.94887130     2.77500
O1204       O  0.50665526  0.62402049  0.95337214    -0.97500
O1205       O  0.50478854  0.55441928  0.87837594    -0.78300
Zr1206     Zr  0.50638783  0.54716558  0.56026228     2.70100
O1207       O  0.00452164  0.61459855  0.56834755    -0.79500
O1208       O  0.50503808  0.54324400  0.63070975    -0.98600
Zr1209     Zr  0.44079106  0.99501131  0.00262939     2.21500
Zr1210     Zr  0.06874192  0.49188880  0.49648232     2.11100
O1211       O  0.03721354  0.54998327  0.50261863    -2.47300
O1212       O  0.47414632  0.55336492  0.00683189    -0.79300
O1213       O  0.03574656  0.50201421  0.94333891    -0.71500
O1214       O  0.47287017  0.99252738  0.56024041    -2.32500
O1215       O  0.47151080  0.00020410  0.94381735    -2.28700
O1216       O  0.03823571  0.48797231  0.55560139    -0.73300
H1217       H  0.04843550  0.91608703  0.49551709     0.78700
H1218       H  0.45925357  0.99087485  0.58307431     0.79800
H1219       H  0.05116800  0.57241355  0.50386901     0.82000
H1220       H  0.45728837  0.00309313  0.92176364     0.79600
H1221       H  0.52905807  0.94373342  0.62906853     0.42700
H1222       H  0.03015851  0.52559787  0.63617917     0.41700
H1223       H  0.49522408  0.62460286  0.53550081     0.41300
H1224       H  0.98565939  0.63235856  0.98028695     0.39300
H1225       H  0.98437466  0.55356330  0.87178182     0.42400
H1226       H  0.50035760  0.93644290  0.85495890     0.37200
H1227       H  0.49034263  0.86340124  0.94793076     0.43300
H1228       H  0.98409950  0.86181962  0.54030124     0.39700
H1229       H  0.48592844  0.63119157  0.96625382     0.44600
H1230       H  0.99006421  0.92599451  0.85999284     0.43400
H1231       H  0.51150450  0.85621130  0.57429280     0.43500
H1232       H  0.51570061  0.56723521  0.63962879     0.43800
C1233       C  0.18154168  0.65420704  0.83968564    -0.02200
C1234       C  0.18158641  0.83196415  0.82816598    -0.02200
C1235       C  0.17854363  0.82559824  0.65424370    -0.02200
C1236       C  0.18244359  0.64614250  0.66308699    -0.02200
C1237       C  0.33047096  0.66264279  0.84863570    -0.02200
C1238       C  0.33249892  0.65692007  0.67126635    -0.02200
C1239       C  0.32827751  0.83167419  0.66064342    -0.02200
C1240       C  0.33095948  0.83751410  0.83874414    -0.02200
C1241       C  0.33470113  0.87782016  0.76873800    -0.05500
C1242       C  0.34089206  0.84430666  0.79232775     0.00400
C1243       C  0.35964549  0.81764274  0.77090018    -0.08200
C1244       C  0.35066164  0.81175312  0.73172735    -0.05500
C1245       C  0.33875629  0.84183042  0.70608939     0.00400
C1246       C  0.33583508  0.87797638  0.72680293    -0.08100
C1247       C  0.33665180  0.91801420  0.70879354     0.62300
H1248       H  0.33139177  0.90534700  0.78270727     0.13000
H1249       H  0.35648995  0.78335790  0.72170821     0.13000
C1250       C  0.39652152  0.82124838  0.77517502     0.62500
F1251       F  0.30984027  0.93901073  0.72093700    -0.22600
F1252       F  0.33712433  0.91807058  0.66912156    -0.20000
F1253       F  0.36452188  0.93675317  0.72128595    -0.19600
F1254       F  0.41255749  0.79234050  0.75531210    -0.19700
F1255       F  0.40628414  0.82014521  0.81316544    -0.20000
F1256       F  0.40662292  0.85629575  0.75997913    -0.22700
C1257       C  0.31021661  0.72381676  0.67942254    -0.05500
C1258       C  0.33246314  0.70202286  0.65849246     0.00400
C1259       C  0.34906407  0.72391386  0.62815091    -0.08200
C1260       C  0.34986873  0.76531796  0.63068871    -0.05500
C1261       C  0.33008291  0.78643195  0.65694679     0.00400
C1262       C  0.30911894  0.76416388  0.68006948    -0.08100
C1263       C  0.28256802  0.78079920  0.70430903     0.62300
H1264       H  0.29569040  0.70778278  0.69978588     0.13000
H1265       H  0.36511674  0.78135305  0.61072915     0.13000
C1266       C  0.36084195  0.70702733  0.58979170     0.62500
F1267       F  0.25582078  0.77908589  0.68244273    -0.22600
F1268       F  0.28399570  0.81683755  0.71919478    -0.20000
F1269       F  0.27991390  0.75880413  0.73530745    -0.19600
F1270       F  0.33731194  0.68309590  0.57450741    -0.19700
F1271       F  0.38978085  0.68749360  0.59383917    -0.20000
F1272       F  0.36630115  0.73559410  0.56227307    -0.22700
C1273       C  0.34658664  0.68847694  0.74060434    -0.05500
C1274       C  0.34347173  0.65372849  0.71805662     0.00400
C1275       C  0.35430660  0.62049092  0.74186215    -0.08200
C1276       C  0.35489776  0.62367383  0.78409224    -0.05500
C1277       C  0.34658021  0.65811478  0.80432731     0.00400
C1278       C  0.35669716  0.68935302  0.77991779    -0.08100
C1279       C  0.39274147  0.70201721  0.78209172     0.62300
H1280       H  0.35135716  0.71540094  0.72627402     0.13000
H1281       H  0.36259005  0.59886748  0.80036049     0.13000
C1282       C  0.36971975  0.58282605  0.72764142     0.62500
F1283       F  0.40754035  0.70597345  0.74648920    -0.22600
F1284       F  0.41137103  0.67531045  0.80181919    -0.20000
F1285       F  0.39547650  0.73751244  0.79842778    -0.19600
F1286       F  0.36350450  0.57434414  0.68973497    -0.19700
F1287       F  0.35870927  0.55177210  0.74954721    -0.20000
F1288       F  0.40309829  0.58453694  0.73272814    -0.22700
C1289       C  0.36493919  0.77272618  0.85911004    -0.05500
C1290       C  0.33608739  0.79253128  0.84707572     0.00400
C1291       C  0.30933553  0.76877857  0.84667175    -0.08200
C1292       C  0.30912371  0.73267938  0.86495431    -0.05500
C1293       C  0.33586101  0.70821714  0.85976419     0.00400
C1294       C  0.36598732  0.73083554  0.86380824    -0.08100
C1295       C  0.39830793  0.71530970  0.87925739     0.62300
H1296       H  0.38630963  0.78939509  0.86609345     0.13000
H1297       H  0.28596561  0.72288286  0.87429388     0.13000
C1298       C  0.28866046  0.76973284  0.81315553     0.62500
F1299       F  0.42442201  0.73616941  0.86440348    -0.22600
F1300       F  0.40370478  0.67734718  0.87027353    -0.20000
F1301       F  0.39884713  0.71938031  0.91901362    -0.19600
F1302       F  0.29222237  0.80001637  0.78839895    -0.19700
F1303       F  0.25789542  0.77162533  0.82751437    -0.20000
F1304       F  0.29705235  0.73637683  0.79343284    -0.22700
C1305       C  0.24092510  0.61563748  0.68360520    -0.05500
C1306       C  0.22167574  0.63821313  0.65753988     0.00400
C1307       C  0.24145114  0.65693308  0.62829604    -0.08200
C1308       C  0.27560218  0.66236442  0.63431972    -0.05500
C1309       C  0.29432908  0.64334746  0.66363839     0.00400
C1310       C  0.27583198  0.61298426  0.68189337    -0.08100
C1311       C  0.28920243  0.57239693  0.68663574     0.62300
H1312       H  0.22914848  0.59725961  0.70428779     0.13000
H1313       H  0.28806689  0.68076952  0.61376704     0.13000
C1314       C  0.22925277  0.66933356  0.58860054     0.62500
F1315       F  0.30508704  0.56856678  0.72088085    -0.22600
F1316       F  0.30970118  0.56317356  0.65644406    -0.20000
F1317       F  0.26467000  0.54488482  0.68669359    -0.19600
F1318       F  0.22770883  0.70909819  0.58643335    -0.19700
F1319       F  0.19936753  0.65366808  0.57957517    -0.20000
F1320       F  0.25083863  0.65670379  0.56047750    -0.22700
C1321       C  0.16469066  0.71189527  0.62110075    -0.05500
C1322       C  0.17957142  0.69237621  0.65355399     0.00400
C1323       C  0.19562393  0.71832226  0.67744979    -0.08200
C1324       C  0.19494458  0.75849724  0.67288995    -0.05500
C1325       C  0.17756089  0.77894506  0.64601349     0.00400
C1326       C  0.16439529  0.75392224  0.61588009    -0.08100
C1327       C  0.15320830  0.76894928  0.57659456     0.62300
H1328       H  0.15430008  0.69461843  0.59847831     0.13000
H1329       H  0.20543043  0.77556849  0.69561839     0.13000
C1330       C  0.21265961  0.70789069  0.71229568     0.62500
F1331       F  0.15201306  0.73977846  0.54939851    -0.22600
F1332       F  0.17482889  0.79610698  0.56239888    -0.20000
F1333       F  0.12233232  0.78441388  0.57905978    -0.19600
F1334       F  0.24343005  0.71839780  0.70665155    -0.19700
F1335       F  0.21624350  0.67103349  0.72232974    -0.20000
F1336       F  0.19617024  0.72752778  0.74069896    -0.22700
C1337       C  0.23676914  0.81697154  0.62069121    -0.05500
C1338       C  0.21714201  0.83854028  0.64687075     0.00400
C1339       C  0.23560810  0.87100917  0.66162523    -0.08200
C1340       C  0.27049355  0.86852543  0.66586742    -0.05500
C1341       C  0.29011599  0.84052865  0.64755783     0.03600
C1342       C  0.27176053  0.81952432  0.61831537    -0.08100
C1343       C  0.28620680  0.79876540  0.58366549     0.62300
H1344       H  0.22487849  0.79682387  0.60162244     0.13000
H1345       H  0.28270710  0.89153707  0.68030579     0.13000
C1346       C  0.22444647  0.91253388  0.65901872     0.62500
F1347       F  0.28302513  0.75936820  0.58886322    -0.22600
F1348       F  0.31832579  0.80767594  0.57660642    -0.20000
F1349       F  0.26918393  0.80936663  0.55069930    -0.19600
F1350       F  0.19319583  0.91617577  0.64629397    -0.19700
F1351       F  0.24386639  0.93202703  0.63239882    -0.20000
F1352       F  0.22790104  0.93067315  0.69414082    -0.22700
C1353       C  0.16458586  0.86996208  0.76298525    -0.05500
C1354       C  0.16684428  0.83550940  0.78453709     0.00400
C1355       C  0.15063514  0.80554323  0.76395963    -0.08200
C1356       C  0.15592656  0.80284726  0.72361898    -0.05500
C1357       C  0.16683153  0.83419140  0.69966363     0.00400
C1358       C  0.16258359  0.87041531  0.72105073    -0.08100
C1359       C  0.14695691  0.90756385  0.70629504     0.62300
H1360       H  0.16319763  0.89671354  0.77874623     0.13000
H1361       H  0.14748869  0.77657314  0.71081157     0.13000
C1362       C  0.11777773  0.79013707  0.77801358     0.62500
F1363       F  0.11838714  0.91386024  0.72685406    -0.22600
F1364       F  0.13831789  0.90729391  0.66812257    -0.20000
F1365       F  0.16734484  0.93859555  0.71290619    -0.19600
F1366       F  0.09840277  0.82058277  0.78966150    -0.19700
F1367       F  0.12137273  0.76421317  0.80783461    -0.20000
F1368       F  0.10067603  0.77182119  0.74893856    -0.22700
C1369       C  0.23561007  0.83184204  0.86824827    -0.05500
C1370       C  0.22035585  0.84242036  0.83260609     0.00400
C1371       C  0.24296523  0.86154752  0.80626873    -0.08200
C1372       C  0.27518130  0.87051835  0.81851756    -0.05500
C1373       C  0.29229786  0.85044828  0.84718416     0.00400
C1374       C  0.26953251  0.83828038  0.87728065    -0.08100
C1375       C  0.27401008  0.84849211  0.91976440     0.62300
H1376       H  0.22036685  0.82041785  0.89105777     0.13000
H1377       H  0.28647860  0.89496143  0.80550784     0.13000
C1378       C  0.23738214  0.87210861  0.76432923     0.62500
F1379       F  0.24731472  0.86861130  0.93370880    -0.22600
F1380       F  0.30021138  0.87263328  0.92498448    -0.20000
F1381       F  0.27627300  0.81552789  0.94219042    -0.19600
F1382       F  0.21901310  0.90491353  0.76108126    -0.19700
F1383       F  0.22460354  0.84107270  0.74480659    -0.20000
F1384       F  0.26616606  0.88123823  0.74583170    -0.22700
C1385       C  0.17385576  0.60543067  0.73088357    -0.05500
C1386       C  0.16666059  0.63797731  0.70700008     0.00400
C1387       C  0.14956629  0.66627685  0.72927136    -0.08200
C1388       C  0.15768515  0.67164839  0.76915875    -0.05500
C1389       C  0.17209412  0.64297401  0.79379581     0.00400
C1390       C  0.17396718  0.60630315  0.77312596    -0.08100
C1391       C  0.17266247  0.56664747  0.79205109     0.62300
H1392       H  0.17854336  0.57839441  0.71671367     0.13000
H1393       H  0.15018811  0.69880427  0.78086259     0.13000
C1394       C  0.11685281  0.68214762  0.71601143     0.62500
F1395       F  0.14355653  0.54905839  0.78209689    -0.22600
F1396       F  0.17431723  0.56744231  0.83169327    -0.20000
F1397       F  0.19810448  0.54415439  0.77858419    -0.19600
F1398       F  0.09776148  0.65223443  0.70236400    -0.19700
F1399       F  0.12050811  0.71010027  0.68790924    -0.20000
F1400       F  0.09965433  0.69835980  0.74630294    -0.22700
C1401       C  0.23760896  0.61775124  0.83192911    -0.05500
C1402       C  0.21874335  0.64269298  0.85393973     0.00400
C1403       C  0.23760083  0.65786051  0.88609651    -0.08200
C1404       C  0.27290226  0.65662135  0.88489277    -0.05500
C1405       C  0.29157414  0.64769909  0.85107602     0.00400
C1406       C  0.27181305  0.62349384  0.82523475    -0.08100
C1407       C  0.28277428  0.60548113  0.78803002     0.62300
H1408       H  0.22434006  0.59862531  0.81427216     0.13000
H1409       H  0.28550281  0.66910400  0.90878545     0.13000
C1410       C  0.22382147  0.67723687  0.92189105     0.62500
F1411       F  0.25848934  0.58573205  0.76852275    -0.22600
F1412       F  0.30636224  0.57834836  0.79526988    -0.20000
F1413       F  0.29201452  0.63483012  0.76358780    -0.19600
F1414       F  0.23604467  0.65898600  0.95450992    -0.19700
F1415       F  0.19048134  0.67591002  0.92462611    -0.20000
F1416       F  0.23360556  0.71545543  0.92231548    -0.22700
C1417       C  0.19620329  0.76283300  0.81329387    -0.05500
C1418       C  0.17996098  0.78631473  0.83975157     0.00400
C1419       C  0.16598402  0.76462424  0.87226910    -0.08200
C1420       C  0.16286737  0.72306391  0.86978448    -0.05500
C1421       C  0.18107159  0.70052290  0.84302837     0.00400
C1422       C  0.20091985  0.72272110  0.81813523    -0.08100
C1423       C  0.23128714  0.70646414  0.80113840     0.62300
H1424       H  0.20878708  0.77757586  0.78990369     0.13000
H1425       H  0.14804402  0.70825100  0.89119544     0.13000
C1426       C  0.15717466  0.78044217  0.91200227     0.62500
F1427       F  0.24359087  0.73032235  0.77459198    -0.22600
F1428       F  0.22888507  0.67180882  0.78433664    -0.20000
F1429       F  0.25323517  0.70359749  0.82918477    -0.19600
F1430       F  0.12374610  0.77882493  0.91728853    -0.19700
F1431       F  0.16803156  0.81741862  0.91841815    -0.20000
F1432       F  0.17150158  0.75759363  0.94023096    -0.22700
C1433       C  0.10099662  0.60990819  0.88389077    -0.05500
C1434       C  0.11288401  0.58690146  0.91393071     0.00400
C1435       C  0.14664696  0.58687063  0.92143935    -0.08200
C1436       C  0.16701867  0.60899156  0.89727399    -0.05500
C1437       C  0.15557135  0.63372727  0.86691014     0.00400
C1438       C  0.12056062  0.63475850  0.86170702    -0.08100
C1439       C  0.10150352  0.65771049  0.83161324     0.62300
H1440       H  0.07531080  0.60769948  0.87705389     0.13000
H1441       H  0.19260663  0.60517538  0.90219675     0.13000
C1442       C  0.16176655  0.56315476  0.95406436     0.62500
F1443       F  0.06881979  0.66147618  0.84148852    -0.22600
F1444       F  0.10249798  0.63875848  0.79661621    -0.20000
F1445       F  0.11276850  0.69464607  0.82845239    -0.19600
F1446       F  0.15993287  0.52788635  0.44842497    -0.19700
F1447       F  0.14627767  0.57119587  0.98874045    -0.20000
F1448       F  0.19460204  0.57122805  0.95900162    -0.22700
C1449       C  0.16684722  0.86817456  0.59437298    -0.05500
C1450       C  0.15434540  0.84588315  0.62579891     0.00400
C1451       C  0.11928989  0.84421236  0.62957055    -0.08200
C1452       C  0.10043715  0.87005183  0.60780673    -0.05500
C1453       C  0.11343278  0.89508234  0.57963012     0.00400
C1454       C  0.14718054  0.89215415  0.57085317    -0.08100
C1455       C  0.16270379  0.91339010  0.53674296     0.62300
H1456       H  0.19261376  0.86742364  0.58814504     0.13000
H1457       H  0.07460981  0.87144754  0.61411069     0.13000
C1458       C  0.09976285  0.81847268  0.65733636     0.62500
F1459       F  0.19490116  0.90267479  0.53100516    -0.22600
F1460       F  0.16224047  0.95273895  0.54308221    -0.20000
F1461       F  0.15313226  0.91430267  0.00907051    -0.19600
F1462       F  0.09855433  0.83489609  0.69359938    -0.19700
F1463       F  0.11217995  0.78186357  0.65930145    -0.20000
F1464       F  0.06779251  0.81393659  0.64508466    -0.22700
C1465       C  0.34508113  0.61367714  0.61192777    -0.05500
C1466       C  0.35704292  0.63466037  0.64421778     0.00400
C1467       C  0.39181726  0.63359957  0.64955161    -0.08200
C1468       C  0.41043686  0.60603786  0.62949270    -0.05500
C1469       C  0.39838370  0.58558783  0.59747939     0.00400
C1470       C  0.36529054  0.59171929  0.58710116    -0.08100
C1471       C  0.35142745  0.57723424  0.54910239     0.62300
H1472       H  0.31964635  0.61562075  0.60453204     0.13000
H1473       H  0.43599043  0.60331641  0.63707218     0.13000
C1474       C  0.41199318  0.66306115  0.67135375     0.62500
F1475       F  0.32037328  0.59124468  0.54207447    -0.22600
F1476       F  0.34967599  0.53753330  0.54969136    -0.20000
F1477       F  0.37058697  0.58928632  0.02143080    -0.19600
F1478       F  0.42349096  0.64731156  0.70538536    -0.19700
F1479       F  0.39507377  0.69616791  0.67881217    -0.20000
F1480       F  0.43870018  0.67402704  0.64912826    -0.22700
C1481       C  0.13001111  0.63474301  0.62786112    -0.05500
C1482       C  0.16156397  0.62059840  0.63490138     0.00400
C1483       C  0.16963283  0.58387075  0.61696297    -0.08200
C1484       C  0.14598394  0.56582453  0.59327499    -0.05500
C1485       C  0.11558521  0.58214469  0.58598432     0.00400
C1486       C  0.10851978  0.61877745  0.60133509    -0.08100
C1487       C  0.07864414  0.64234844  0.59052155     0.62300
H1488       H  0.12230554  0.66078751  0.64146463     0.13000
H1489       H  0.15045887  0.53772490  0.58089904     0.13000
C1490       C  0.20086118  0.56066668  0.62305015     0.62500
F1491       F  0.06860658  0.63458575  0.55314695    -0.22600
F1492       F  0.08550407  0.68147456  0.59188210    -0.20000
F1493       F  0.05378682  0.63444846  0.61657155    -0.19600
F1494       F  0.20454530  0.55231755  0.66168638    -0.19700
F1495       F  0.22765177  0.57997210  0.60839502    -0.20000
F1496       F  0.20028844  0.52539503  0.60437760    -0.22700
C1497       C  0.37295754  0.89067883  0.84842709    -0.05500
C1498       C  0.35431791  0.86082459  0.86602567     0.00400
C1499       C  0.36064148  0.85421428  0.90712157    -0.08200
C1500       C  0.38007165  0.88100522  0.92695492    -0.05500
C1501       C  0.39505552  0.91202494  0.90864236     0.00400
C1502       C  0.39322035  0.91567715  0.86828602    -0.08100
C1503       C  0.41340558  0.94345198  0.84355325     0.62300
H1504       H  0.37424910  0.89465084  0.81792349     0.13000
H1505       H  0.38593161  0.87597638  0.95717502     0.13000
C1506       C  0.35176606  0.81985480  0.93353617     0.62500
F1507       F  0.43435791  0.92241481  0.82039396    -0.22600
F1508       F  0.43182788  0.96896529  0.86466267    -0.20000
F1509       F  0.39287428  0.96456967  0.81985706    -0.19600
F1510       F  0.37972035  0.79869535  0.94071104    -0.19700
F1511       F  0.32857912  0.79527272  0.91981446    -0.20000
F1512       F  0.34026173  0.83297553  0.96888772    -0.22700
C1513       C  0.38543119  0.62582399  0.93493772    -0.05500
C1514       C  0.39384031  0.58972405  0.92051329     0.00400
C1515       C  0.37494189  0.57411657  0.89041931    -0.08200
C1516       C  0.35136310  0.59739925  0.87235251    -0.05500
C1517       C  0.34776313  0.63677130  0.88063741     0.00400
C1518       C  0.35977223  0.64790838  0.91862676    -0.08100
C1519       C  0.34123645  0.67226737  0.94848615     0.62300
H1520       H  0.39747586  0.63501862  0.96120768     0.13000
H1521       H  0.33575056  0.58480469  0.85113228     0.13000
C1522       C  0.38095401  0.53373233  0.87612219     0.62500
F1523       F  0.31521747  0.65085298  0.96251730    -0.22600
F1524       F  0.33002751  0.70691249  0.93473773    -0.20000
F1525       F  0.36064539  0.68115313  0.98001399    -0.19600
F1526       F  0.37537078  0.50750008  0.90571282    -0.19700
F1527       F  0.41617981  0.03997121  0.86007347    -0.20000
F1528       F  0.36089371  0.52429566  0.84538907    -0.22700
C1529       C  0.12717540  0.84472179  0.86157879    -0.05500
C1530       C  0.15903836  0.85881145  0.85475123     0.00400
C1531       C  0.16573913  0.89672437  0.87113078    -0.08200
C1532       C  0.14193297  0.91439081  0.89545505    -0.05500
C1533       C  0.11064539  0.89927864  0.90172263     0.00400
C1534       C  0.10311177  0.86340895  0.88396619    -0.08100
C1535       C  0.07019722  0.84335095  0.88913991     0.62300
H1536       H  0.12144383  0.81684586  0.85066822     0.13000
H1537       H  0.14712946  0.94175558  0.90902174     0.13000
C1538       C  0.19547075  0.92202526  0.86222229     0.62500
F1539       F  0.06979832  0.80666452  0.87347147    -0.22600
F1540       F  0.04605731  0.86421930  0.87062012    -0.20000
F1541       F  0.06300366  0.83971821  0.92816359    -0.19600
F1542       F  0.19957853  0.92580332  0.82314971    -0.19700
F1543       F  0.22324074  0.90753453  0.87873584    -0.20000
F1544       F  0.19218717  0.95925350  0.87613424    -0.22700
C1545       C  0.40657406  0.87923344  0.61503247    -0.05500
C1546       C  0.39395080  0.90202856  0.58509402     0.00400
C1547       C  0.36011771  0.89980858  0.57759349    -0.08200
C1548       C  0.34043002  0.87689364  0.60221975    -0.05500
C1549       C  0.35298892  0.85273407  0.63238863     0.00400
C1550       C  0.38803539  0.85253197  0.63629032    -0.08100
C1551       C  0.40983460  0.82595213  0.66014159     0.62300
H1552       H  0.43247135  0.88093106  0.62130610     0.13000
H1553       H  0.31457626  0.87886920  0.59752835     0.13000
C1554       C  0.34428980  0.92150110  0.54426166     0.62500
F1555       F  0.43352466  0.81040434  0.63615230    -0.22600
F1556       F  0.39466551  0.79537106  0.67715377    -0.20000
F1557       F  0.42535392  0.84725491  0.68835227    -0.19600
F1558       F  0.36000092  0.90953673  0.01114947    -0.19700
F1559       F  0.34509652  0.96055527  0.55145067    -0.20000
F1560       F  0.31201827  0.91082840  0.53892209    -0.22700
O1561       O  0.94950190  0.42801383  0.41774422    -0.75000
O1562       O  0.91144373  0.45792992  0.45574815    -0.53900
C1563       C  0.92025528  0.43624463  0.42746381     0.78700
O1564       O  0.55967048  0.41047138  0.06917290    -0.59600
O1565       O  0.59979568  0.44411983  0.03876312    -0.52700
C1566       C  0.58990860  0.41648963  0.06086718     0.70700
O1567       O  0.94827526  0.41201044  0.06461480    -0.74200
O1568       O  0.90896283  0.45259532  0.04285279    -0.54700
C1569       C  0.91827883  0.42252007  0.06157323     0.76700
O1570       O  0.55778531  0.41983871  0.41893185    -0.59300
O1571       O  0.59841657  0.44913108  0.45197782    -0.52400
C1572       C  0.58807903  0.42486309  0.42624099     0.73300
Zr1573     Zr  0.50472305  0.44274550  0.43937303     2.54700
O1574       O  0.50044960  0.37288149  0.43513632    -0.79900
O1575       O  0.50612020  0.45421109  0.36972999    -0.93300
Zr1576     Zr  0.50524339  0.43517750  0.05766511     2.64700
O1577       O  0.00384949  0.36320101  0.04643136    -0.98300
O1578       O  0.50497323  0.44278826  0.12774669    -0.80300
O1579       O  0.97161946  0.43799470  0.49541937    -0.83700
O1580       O  0.53650937  0.43507405  0.99992855    -2.18400
O1581       O  0.56117175  0.07731327  0.43664735    -0.67100
O1582       O  0.60052061  0.03780192  0.46047939    -0.51600
C1583       C  0.59116294  0.06731812  0.44097035     0.71700
O1584       O  0.95436208  0.07095542  0.07977648    -0.60000
O1585       O  0.91382194  0.04010566  0.04791709    -0.52000
C1586       C  0.92398520  0.06450778  0.07326038     0.73500
O1587       O  0.56111325  0.05978085  0.08068418    -0.71400
O1588       O  0.59921655  0.03110334  0.04212485    -0.50100
C1589       C  0.59059094  0.05439635  0.06946154     0.74900
O1590       O  0.95045804  0.08314271  0.43164235    -0.66700
O1591       O  0.91196917  0.04710301  0.46358294    -0.53900
C1592       C  0.92071212  0.07402653  0.43991025     0.73300
Zr1593     Zr  0.00502394  0.05933680  0.44805530     2.77500
O1594       O  0.00956116  0.12941977  0.45058057    -0.97500
O1595       O  0.00383479  0.05888143  0.37757916    -0.78300
Zr1596     Zr  0.00741464  0.04902959  0.05786999     2.70100
O1597       O  0.50432633  0.11218245  0.06575453    -0.79500
O1598       O  0.00890289  0.04638144  0.12833889    -0.98600
Zr1599     Zr  0.94127585  0.49660122  0.50197296     2.21500
Zr1600     Zr  0.56878033  0.98957356  0.99728045     2.11100
O1601       O  0.53762423  0.04769131  0.00507809    -2.47300
O1602       O  0.97417665  0.05833519  0.50600201    -0.79300
O1603       O  0.53702501  0.00188036  0.44222300    -0.71500
O1604       O  0.97273753  0.49011567  0.06110324    -2.32500
O1605       O  0.97190371  0.49958109  0.44281874    -2.28700
O1606       O  0.53796346  0.98524670  0.05606002    -0.73300
H1607       H  0.54936484  0.41184022  0.99816552     0.78700
H1608       H  0.95928629  0.48796401  0.08403241     0.79800
H1609       H  0.55178131  0.06989416  0.00701373     0.82000
H1610       H  0.95770442  0.50204909  0.42069676     0.79600
H1611       H  0.99399591  0.40155993  0.12792863     0.42700
H1612       H  0.53051217  0.01848127  0.13667883     0.41700
H1613       H  0.99178280  0.12647317  0.03680270     0.41300
H1614       H  0.52787614  0.13589889  0.46209018     0.39300
H1615       H  0.49435509  0.08175187  0.37081065     0.42400
H1616       H  0.99783747  0.46567410  0.35914606     0.37200
H1617       H  0.97769446  0.36521946  0.43636291     0.43300
H1618       H  0.49442077  0.36083558  0.09177272     0.39700
H1619       H  0.02747224  0.13444816  0.46909157     0.44600
H1620       H  0.52904295  0.46118643  0.36371257     0.43400
H1621       H  0.02190605  0.35748462  0.02823122     0.43500
H1622       H  0.98931148  0.03134230  0.13594423     0.43800
C1623       C  0.68273968  0.15646708  0.34209611    -0.02200
C1624       C  0.68042112  0.33434120  0.32621740    -0.02200
C1625       C  0.67967474  0.32122488  0.15333024    -0.02200
C1626       C  0.68432997  0.14236012  0.16510502    -0.02200
C1627       C  0.83069629  0.16862001  0.35076615    -0.02200
C1628       C  0.83411313  0.15553376  0.17344655    -0.02200
C1629       C  0.82913479  0.32967632  0.16040318    -0.02200
C1630       C  0.82900109  0.34313447  0.33781316    -0.02200
C1631       C  0.83327708  0.38037971  0.26632491    -0.05500
C1632       C  0.83929270  0.34790932  0.29133996     0.00400
C1633       C  0.85909485  0.32105931  0.27150310    -0.08200
C1634       C  0.85060854  0.31301410  0.23252508    -0.05500
C1635       C  0.83874040  0.34176512  0.20547561     0.00400
C1636       C  0.83507659  0.37876556  0.22447523    -0.08100
C1637       C  0.83600908  0.41802927  0.20474572     0.62300
H1638       H  0.82959570  0.40839792  0.27913541     0.13000
H1639       H  0.85655887  0.28421055  0.22377781     0.13000
C1640       C  0.89579653  0.32707788  0.27611245     0.62500
F1641       F  0.81021498  0.44035482  0.21760093    -0.22600
F1642       F  0.83454066  0.41665512  0.16518798    -0.20000
F1643       F  0.86484258  0.43626427  0.21461357    -0.19600
F1644       F  0.91344381  0.29959616  0.25609413    -0.19700
F1645       F  0.90531764  0.32594435  0.31418954    -0.20000
F1646       F  0.90435720  0.36295229  0.26155538    -0.22700
C1647       C  0.81055705  0.22202610  0.17744135    -0.05500
C1648       C  0.83399592  0.20022194  0.15872468     0.00400
C1649       C  0.85177293  0.22208073  0.12926730    -0.08200
C1650       C  0.85222004  0.26353179  0.13160473    -0.05500
C1651       C  0.83193599  0.28456718  0.15748454     0.00400
C1652       C  0.81042693  0.26223009  0.17954160    -0.08100
C1653       C  0.78441339  0.27809061  0.20485577     0.62300
H1654       H  0.79516704  0.20607302  0.19671772     0.13000
H1655       H  0.86767566  0.27953010  0.11184081     0.13000
C1656       C  0.86575395  0.20521945  0.09202391     0.62500
F1657       F  0.75711566  0.27491529  0.18409480    -0.22600
F1658       F  0.78468953  0.31453578  0.21885870    -0.20000
F1659       F  0.78424851  0.25600582  0.23628813    -0.19600
F1660       F  0.84510270  0.17761600  0.07729059    -0.19700
F1661       F  0.89647600  0.19027023  0.09770279    -0.20000
F1662       F  0.86870079  0.23320059  0.06338415    -0.22700
C1663       C  0.84543526  0.19011795  0.24138764    -0.05500
C1664       C  0.84442113  0.15442868  0.22038445     0.00400
C1665       C  0.85615323  0.12280336  0.24578779    -0.08200
C1666       C  0.85645656  0.12800877  0.28783391    -0.05500
C1667       C  0.84683109  0.16294603  0.30658824     0.00400
C1668       C  0.85484224  0.19366155  0.28060447    -0.08100
C1669       C  0.88933435  0.21084039  0.28233945     0.62300
H1670       H  0.84953160  0.21655055  0.22607163     0.13000
H1671       H  0.86458990  0.10408832  0.30509851     0.13000
C1672       C  0.87193414  0.08458610  0.23336364     0.62500
F1673       F  0.90437367  0.21438961  0.24668197    -0.22600
F1674       F  0.90991816  0.18802511  0.30394504    -0.20000
F1675       F  0.88797311  0.24731243  0.29644336    -0.19600
F1676       F  0.86680367  0.07510107  0.19541190    -0.19700
F1677       F  0.86028872  0.05426483  0.25579732    -0.20000
F1678       F  0.90516611  0.08600450  0.23980470    -0.22700
C1679       C  0.86349162  0.27968933  0.36120445    -0.05500
C1680       C  0.83445815  0.29861812  0.34828158     0.00400
C1681       C  0.80800015  0.27438103  0.34874822    -0.08200
C1682       C  0.80859437  0.23853199  0.36767878    -0.05500
C1683       C  0.83554585  0.21444631  0.36145801     0.00400
C1684       C  0.86531136  0.23775239  0.36541735    -0.08100
C1685       C  0.89843078  0.22291558  0.37873710     0.62300
H1686       H  0.88468314  0.29680061  0.36797422     0.13000
H1687       H  0.78555201  0.22827138  0.37688220     0.13000
C1688       C  0.78723350  0.27386712  0.31534284     0.62500
F1689       F  0.92332212  0.24237499  0.35963198    -0.22600
F1690       F  0.90313745  0.18428209  0.37237232    -0.20000
F1691       F  0.90170364  0.23001651  0.41786514    -0.19600
F1692       F  0.79057351  0.30278606  0.28891672    -0.19700
F1693       F  0.75644378  0.27597895  0.32979888    -0.20000
F1694       F  0.79597821  0.23977539  0.29732384    -0.22700
C1695       C  0.74283059  0.11214272  0.18531277    -0.05500
C1696       C  0.72356989  0.13458006  0.15929537     0.00400
C1697       C  0.74341913  0.15335621  0.13004077    -0.08200
C1698       C  0.77749891  0.15896603  0.13610414    -0.05500
C1699       C  0.79606582  0.14100068  0.16614020     0.00400
C1700       C  0.77777162  0.11023978  0.18420532    -0.08100
C1701       C  0.79174007  0.07027881  0.19120116     0.62300
H1702       H  0.73102020  0.09363473  0.20579272     0.13000
H1703       H  0.79023648  0.17653282  0.11493924     0.13000
C1704       C  0.73160494  0.16549106  0.09014769     0.62500
F1705       F  0.80798817  0.06911947  0.22527687    -0.22600
F1706       F  0.81206953  0.05950801  0.16134386    -0.20000
F1707       F  0.76758653  0.04231315  0.19357464    -0.19600
F1708       F  0.73052348  0.20528079  0.08760077    -0.19700
F1709       F  0.70165906  0.15007676  0.08104285    -0.20000
F1710       F  0.75329401  0.15230713  0.06237440    -0.22700
C1711       C  0.66703588  0.20724827  0.12225958    -0.05500
C1712       C  0.68177697  0.18834991  0.15509403     0.00400
C1713       C  0.69789327  0.21454303  0.17873321    -0.08200
C1714       C  0.69661829  0.25469230  0.17386165    -0.05500
C1715       C  0.67923391  0.27449247  0.14637211     0.00400
C1716       C  0.66654837  0.24902949  0.11641331    -0.08100
C1717       C  0.65531038  0.26331545  0.07685739     0.62300
H1718       H  0.65670455  0.18964974  0.09986707     0.13000
H1719       H  0.70652969  0.27219025  0.19664876     0.13000
C1720       C  0.71412906  0.20444524  0.21440172     0.62500
F1721       F  0.65447863  0.23376433  0.05006922    -0.22600
F1722       F  0.67666218  0.29057860  0.06229857    -0.20000
F1723       F  0.62423793  0.27825323  0.07899638    -0.19600
F1724       F  0.74465948  0.21625294  0.21107010    -0.19700
F1725       F  0.71855471  0.16750353  0.22441801    -0.20000
F1726       F  0.69629796  0.22363762  0.24185130    -0.22700
C1727       C  0.73812042  0.31196515  0.12058794    -0.05500
C1728       C  0.71814643  0.33441721  0.14567536     0.00400
C1729       C  0.73630635  0.36752979  0.15948526    -0.08200
C1730       C  0.77103339  0.36524859  0.16440065    -0.05500
C1731       C  0.79096956  0.33716957  0.14690700     0.03600
C1732       C  0.77304879  0.31494643  0.11825695    -0.08100
C1733       C  0.78803858  0.29327557  0.08444152     0.62300
H1734       H  0.72655511  0.29097243  0.10217437     0.13000
H1735       H  0.78291384  0.38879735  0.17826772     0.13000
C1736       C  0.72591061  0.40911254  0.15390052     0.62500
F1737       F  0.78684827  0.25406520  0.09173942    -0.22600
F1738       F  0.81961112  0.30405236  0.07632568    -0.20000
F1739       F  0.77019225  0.30080394  0.05125099    -0.19600
F1740       F  0.69470580  0.41294744  0.14122636    -0.19700
F1741       F  0.74559437  0.42602047  0.12577711    -0.20000
F1742       F  0.72999696  0.42964478  0.18763760    -0.22700
C1743       C  0.66311528  0.36958847  0.25961986    -0.05500
C1744       C  0.66554661  0.33617038  0.28259457     0.00400
C1745       C  0.65023958  0.30501675  0.26293054    -0.08200
C1746       C  0.65679321  0.30057420  0.22308800    -0.05500
C1747       C  0.66744169  0.33123902  0.19809048     0.00400
C1748       C  0.66218951  0.36828753  0.21772770    -0.08100
C1749       C  0.64774764  0.40525135  0.20091464     0.62300
H1750       H  0.66066053  0.39683630  0.27406733     0.13000
H1751       H  0.64948893  0.27332905  0.21149653     0.13000
C1752       C  0.61736389  0.28928800  0.27661579     0.62500
F1753       F  0.61886908  0.41326216  0.22020037    -0.22600
F1754       F  0.63993797  0.40378730  0.16258256    -0.20000
F1755       F  0.66870076  0.43587859  0.20697194    -0.19600
F1756       F  0.59679582  0.31973611  0.28499995    -0.19700
F1757       F  0.62046356  0.26584075  0.30852607    -0.20000
F1758       F  0.60193451  0.26806047  0.24826285    -0.22700
C1759       C  0.73388581  0.33787803  0.36696469    -0.05500
C1760       C  0.71892294  0.34566569  0.33043331     0.00400
C1761       C  0.74134822  0.36397995  0.30335721    -0.08200
C1762       C  0.77324965  0.37442409  0.31541169    -0.05500
C1763       C  0.79031901  0.35624878  0.34525416     0.00400
C1764       C  0.76751572  0.34613394  0.37600495    -0.08100
C1765       C  0.77077481  0.36197087  0.41693898     0.62300
H1766       H  0.71853462  0.32790517  0.39034410     0.13000
H1767       H  0.78430201  0.39838304  0.30120378     0.13000
C1768       C  0.73600511  0.37214007  0.26095440     0.62500
F1769       F  0.74360216  0.38335465  0.42718669    -0.22600
F1770       F  0.79683385  0.38685202  0.41994286    -0.20000
F1771       F  0.77251553  0.33227294  0.44363352    -0.19600
F1772       F  0.71755512  0.40470663  0.25584751    -0.19700
F1773       F  0.72357870  0.33996467  0.24308401    -0.20000
F1774       F  0.76494059  0.38025857  0.24237367    -0.22700
C1775       C  0.67658935  0.10340840  0.23464209    -0.05500
C1776       C  0.66867038  0.13491864  0.20949583     0.00400
C1777       C  0.65102818  0.16339479  0.23106987    -0.08200
C1778       C  0.65870530  0.17015765  0.27092799    -0.05500
C1779       C  0.67381153  0.14305602  0.29650647     0.00400
C1780       C  0.67645473  0.10573359  0.27698311    -0.08100
C1781       C  0.67503033  0.06677929  0.29740627     0.62300
H1782       H  0.68167608  0.07593969  0.22137617     0.13000
H1783       H  0.65058351  0.19740285  0.28181619     0.13000
C1784       C  0.61859558  0.17906117  0.21693436     0.62500
F1785       F  0.64576576  0.04908631  0.28829493    -0.22600
F1786       F  0.67683318  0.06911258  0.33701316    -0.20000
F1787       F  0.70026944  0.04352073  0.28470994    -0.19600
F1788       F  0.59984086  0.14917164  0.20268313    -0.19700
F1789       F  0.62292947  0.20715789  0.18915784    -0.20000
F1790       F  0.60069215  0.19501186  0.24678006    -0.22700
C1791       C  0.73906680  0.12113265  0.33529963    -0.05500
C1792       C  0.71993973  0.14631596  0.35666354     0.00400
C1793       C  0.73844625  0.16286746  0.38844970    -0.08200
C1794       C  0.77371834  0.16187184  0.38731196    -0.05500
C1795       C  0.79219202  0.15303788  0.35335697     0.00400
C1796       C  0.77292040  0.12792965  0.32789988    -0.08100
C1797       C  0.78384342  0.10976029  0.29060019     0.62300
H1798       H  0.72624627  0.10066180  0.31870285     0.13000
H1799       H  0.78652599  0.17494762  0.41083816     0.13000
C1800       C  0.72433494  0.18692093  0.42114524     0.62500
F1801       F  0.75951952  0.08984141  0.27131948    -0.22600
F1802       F  0.80756406  0.08277860  0.29775194    -0.20000
F1803       F  0.79290350  0.13885440  0.26581961    -0.19600
F1804       F  0.74064121  0.17887172  0.45531547    -0.19700
F1805       F  0.69185829  0.18006217  0.42813778    -0.20000
F1806       F  0.72860174  0.22560052  0.41248195    -0.22700
C1807       C  0.69526805  0.26514859  0.31318043    -0.05500
C1808       C  0.67908198  0.28897865  0.33922811     0.00400
C1809       C  0.66507871  0.26768224  0.37201878    -0.08200
C1810       C  0.66288160  0.22583986  0.37066232    -0.05500
C1811       C  0.68120457  0.20301744  0.34412942     0.00400
C1812       C  0.70047260  0.22529101  0.31871370    -0.08100
C1813       C  0.73144341  0.21013694  0.30272307     0.62300
H1814       H  0.70755571  0.27964230  0.28944092     0.13000
H1815       H  0.64860033  0.21112037  0.39264389     0.13000
C1816       C  0.65478882  0.28462653  0.41071763     0.62500
F1817       F  0.74342271  0.23455703  0.27592250    -0.22600
F1818       F  0.73005371  0.17508281  0.28660679    -0.20000
F1819       F  0.75268556  0.20825324  0.33164318    -0.19600
F1820       F  0.62117408  0.28402215  0.41377138    -0.19700
F1821       F  0.66616415  0.32144660  0.41678716    -0.20000
F1822       F  0.66725045  0.26222387  0.44051157    -0.22700
C1823       C  0.60310239  0.11322969  0.38902615    -0.05500
C1824       C  0.61532830  0.09133002  0.41971721     0.00400
C1825       C  0.64890672  0.09309654  0.42784146    -0.08200
C1826       C  0.66913255  0.11333806  0.40185671    -0.05500
C1827       C  0.65732351  0.13641886  0.37029415     0.00400
C1828       C  0.62231488  0.13720511  0.36559338    -0.08100
C1829       C  0.60297965  0.15831278  0.33441036     0.62300
H1830       H  0.57749371  0.11029675  0.38216734     0.13000
H1831       H  0.69479221  0.10976781  0.40681160     0.13000
C1832       C  0.66390785  0.07385486  0.46332052     0.62500
F1833       F  0.57013550  0.16147127  0.34372171    -0.22600
F1834       F  0.60463783  0.13787062  0.30033435    -0.20000
F1835       F  0.61345062  0.19545803  0.32975755    -0.19600
F1836       F  0.66133563  0.02380505  0.94683508    -0.19700
F1837       F  0.64560854  0.08212405  0.49595642    -0.20000
F1838       F  0.69535854  0.08691619  0.47011529    -0.22700
C1839       C  0.66742157  0.36258018  0.09310818    -0.05500
C1840       C  0.65522976  0.34021179  0.12452745     0.00400
C1841       C  0.62020089  0.33800473  0.12852098    -0.08200
C1842       C  0.60100364  0.36345017  0.10680221    -0.05500
C1843       C  0.61378133  0.38921457  0.07915521     0.00400
C1844       C  0.64758223  0.38700158  0.07036542    -0.08100
C1845       C  0.66309427  0.40972885  0.03727764     0.62300
H1846       H  0.69315710  0.36191589  0.08666314     0.13000
H1847       H  0.57513331  0.36417558  0.11304093     0.13000
C1848       C  0.60093511  0.31225869  0.15650873     0.62500
F1849       F  0.69562588  0.40029192  0.03192153    -0.22600
F1850       F  0.66166009  0.44882236  0.04482105    -0.20000
F1851       F  0.64831192  0.40957142  0.50607858    -0.19600
F1852       F  0.59815403  0.32999697  0.19205353    -0.19700
F1853       F  0.61451789  0.27645881  0.16038393    -0.20000
F1854       F  0.56957060  0.30555548  0.14314064    -0.22700
C1855       C  0.84651527  0.11062741  0.11620395    -0.05500
C1856       C  0.85886652  0.13283529  0.14741125     0.00400
C1857       C  0.89382546  0.13377795  0.15137103    -0.08200
C1858       C  0.91278902  0.10825599  0.12894178    -0.05500
C1859       C  0.90013585  0.08703730  0.09762350     0.00400
C1860       C  0.86632014  0.09039959  0.08985113    -0.08100
C1861       C  0.85090664  0.07531575  0.05283619     0.62300
H1862       H  0.82085500  0.11086033  0.11015110     0.13000
H1863       H  0.93866684  0.10656051  0.13496272     0.13000
C1864       C  0.91317349  0.16278461  0.17543842     0.62500
F1865       F  0.81839544  0.08568731  0.04937578    -0.22600
F1866       F  0.85225853  0.03565209  0.05210870    -0.20000
F1867       F  0.86692958  0.09168501  0.52123480    -0.19600
F1868       F  0.91835408  0.14913544  0.21229212    -0.19700
F1869       F  0.89804952  0.19789089  0.17746381    -0.20000
F1870       F  0.94350961  0.16980546  0.15892393    -0.22700
C1871       C  0.63146876  0.13111693  0.13004419    -0.05500
C1872       C  0.66305043  0.11685423  0.13695828     0.00400
C1873       C  0.67074043  0.08001121  0.11910027    -0.08200
C1874       C  0.64655758  0.06151110  0.09636046    -0.05500
C1875       C  0.61579087  0.07740139  0.08998439     0.00400
C1876       C  0.60894146  0.11421633  0.10520799    -0.08100
C1877       C  0.57825969  0.13688637  0.09527712     0.62300
H1878       H  0.62436234  0.15762429  0.14301727     0.13000
H1879       H  0.65098285  0.03342836  0.08392771     0.13000
C1880       C  0.70232903  0.05732396  0.12423579     0.62500
F1881       F  0.57081929  0.13279698  0.05643927    -0.22600
F1882       F  0.58223513  0.17599651  0.10190283    -0.20000
F1883       F  0.55258367  0.12401231  0.11802408    -0.19600
F1884       F  0.70677981  0.04884453  0.16278014    -0.19700
F1885       F  0.72862434  0.07719928  0.10908325    -0.20000
F1886       F  0.70183766  0.02224526  0.10520771    -0.22700
C1887       C  0.87168848  0.39598167  0.34576029    -0.05500
C1888       C  0.85201587  0.36755977  0.36428083     0.00400
C1889       C  0.85734070  0.36252597  0.40569417    -0.08200
C1890       C  0.87792545  0.38858684  0.42462827    -0.05500
C1891       C  0.89535317  0.41698850  0.40518854     0.00400
C1892       C  0.89374758  0.41958066  0.36472530    -0.08100
C1893       C  0.91530367  0.44506685  0.33907502     0.62300
H1894       H  0.87227292  0.39981555  0.31522796     0.13000
H1895       H  0.88286641  0.38460104  0.45521218     0.13000
C1896       C  0.84598969  0.33050178  0.43358723     0.62500
F1897       F  0.93426863  0.42186114  0.31558771    -0.22600
F1898       F  0.93589420  0.46896018  0.35925528    -0.20000
F1899       F  0.89581954  0.46791020  0.31571483    -0.19600
F1900       F  0.87274621  0.30858959  0.44412265    -0.19700
F1901       F  0.82272309  0.30600346  0.41981856    -0.20000
F1902       F  0.83344507  0.34669430  0.46710337    -0.22700
C1903       C  0.88622844  0.13220884  0.43641530    -0.05500
C1904       C  0.89451502  0.09643545  0.42109566     0.00400
C1905       C  0.87513673  0.08102810  0.39140130    -0.08200
C1906       C  0.85054685  0.10391203  0.37526123    -0.05500
C1907       C  0.84777696  0.14333142  0.38316000     0.00400
C1908       C  0.86060356  0.15471588  0.42068618    -0.08100
C1909       C  0.84341565  0.18037772  0.45058644     0.62300
H1910       H  0.89863780  0.14095578  0.46260174     0.13000
H1911       H  0.83442320  0.09147220  0.35450845     0.13000
C1912       C  0.88222787  0.04202309  0.37435756     0.62500
F1913       F  0.81710140  0.16038666  0.46587538    -0.22600
F1914       F  0.83284852  0.21516205  0.43655909    -0.20000
F1915       F  0.86384470  0.18909701  0.48125468    -0.19600
F1916       F  0.88039223  0.01387413  0.40276382    -0.19700
F1917       F  0.90784435  0.53245471  0.36474709    -0.20000
F1918       F  0.86037555  0.03254654  0.34539641    -0.22700
C1919       C  0.62627214  0.34851849  0.35880888    -0.05500
C1920       C  0.65820224  0.36196503  0.35201060     0.00400
C1921       C  0.66557130  0.39967649  0.36840535    -0.08200
C1922       C  0.64325495  0.41625643  0.39534651    -0.05500
C1923       C  0.61186496  0.40158453  0.40205447     0.00400
C1924       C  0.60311513  0.36686932  0.38263052    -0.08100
C1925       C  0.56998331  0.34729422  0.38775984     0.62300
H1926       H  0.61989831  0.32128843  0.34686212     0.13000
H1927       H  0.64933136  0.44300311  0.40965937     0.13000
C1928       C  0.69288494  0.42697718  0.35493870     0.62500
F1929       F  0.56866223  0.31134925  0.37053239    -0.22600
F1930       F  0.54583989  0.36931485  0.37068442    -0.20000
F1931       F  0.56353265  0.34211592  0.42679880    -0.19600
F1932       F  0.69328795  0.42982246  0.31546707    -0.19700
F1933       F  0.72297081  0.41567127  0.36776628    -0.20000
F1934       F  0.68841515  0.46427749  0.36819131    -0.22700
C1935       C  0.90722584  0.37559568  0.11323309    -0.05500
C1936       C  0.89424976  0.39849661  0.08362421     0.00400
C1937       C  0.86020947  0.39729553  0.07726043    -0.08200
C1938       C  0.84090493  0.37376070  0.10151614    -0.05500
C1939       C  0.85368982  0.35031590  0.13198954     0.00400
C1940       C  0.88872053  0.35017334  0.13591978    -0.08100
C1941       C  0.91021186  0.32624776  0.16285798     0.62300
H1942       H  0.93316881  0.37735112  0.11912892     0.13000
H1943       H  0.81503142  0.37543850  0.09703479     0.13000
C1944       C  0.84353131  0.42173500  0.04652171     0.62500
F1945       F  0.93660692  0.31182468  0.14234946    -0.22600
F1946       F  0.89556516  0.29494081  0.17931676    -0.20000
F1947       F  0.92215398  0.34992604  0.19152902    -0.19600
F1948       F  0.86168684  0.41372807  0.51359241    -0.19700
F1949       F  0.84640728  0.46007454  0.05609647    -0.20000
F1950       F  0.81055573  0.41345926  0.04324056    -0.22700
O1951       O  0.94955763  0.42826675  0.92155626    -0.75000
O1952       O  0.91099678  0.45835334  0.95873225    -0.53900
C1953       C  0.92017844  0.43591008  0.93128367     0.78700
O1954       O  0.55915330  0.41134298  0.56627788    -0.59600
O1955       O  0.59902235  0.44717768  0.53805163    -0.52700
C1956       C  0.58933857  0.41923193  0.55987038     0.70700
O1957       O  0.94996562  0.41328969  0.56820815    -0.74200
O1958       O  0.91118403  0.45322378  0.54389209    -0.54700
C1959       C  0.92020166  0.42448150  0.56480124     0.76700
O1960       O  0.55719188  0.41652038  0.92278406    -0.59300
O1961       O  0.59771180  0.44749262  0.95462004    -0.52400
C1962       C  0.58748085  0.42236208  0.92960078     0.73300
Zr1963     Zr  0.50468808  0.44056373  0.94385943     2.54700
O1964       O  0.49846522  0.37069992  0.94484981    -0.79900
O1965       O  0.51060700  0.44495191  0.87380096    -0.93300
Zr1966     Zr  0.50480896  0.43406330  0.55251966     2.64700
O1967       O  0.00401616  0.36233911  0.54566726    -0.98300
O1968       O  0.50772073  0.42705017  0.62263440    -0.80300
O1969       O  0.97165516  0.44023501  0.99652078    -0.83700
O1970       O  0.53659186  0.43567338  0.49528351    -2.18400
O1971       O  0.56021075  0.07445384  0.93404295    -0.67100
O1972       O  0.59903467  0.03323018  0.95610107    -0.51600
C1973       C  0.58999488  0.06314281  0.93696812     0.71700
O1974       O  0.95416208  0.07394645  0.58363737    -0.60000
O1975       O  0.91383949  0.04550249  0.54919042    -0.52000
C1976       C  0.92383635  0.06904717  0.57544887     0.73500
O1977       O  0.56126952  0.06714631  0.57948001    -0.71400
O1978       O  0.59922091  0.03534133  0.54318127    -0.50100
C1979       C  0.59074616  0.06038682  0.56880536     0.74900
O1980       O  0.94951181  0.07739600  0.92858401    -0.66700
O1981       O  0.91115320  0.04310217  0.96251436    -0.53900
C1982       C  0.91981787  0.06932829  0.93810493     0.73300
Zr1983     Zr  0.00456195  0.05409775  0.94387735     2.77500
O1984       O  0.00677932  0.12430264  0.94051986    -0.97500
O1985       O  0.00335580  0.05048200  0.87346904    -0.78300
Zr1986     Zr  0.00724026  0.05196413  0.56157657     2.70100
O1987       O  0.50427805  0.11790530  0.56648707    -0.79500
O1988       O  0.01018143  0.04726686  0.63187156    -0.98600
Zr1989     Zr  0.94043405  0.49786657  0.00432814     2.21500
Zr1990     Zr  0.56885076  0.99363514  0.49943237     2.11100
O1991       O  0.53762803  0.05203684  0.50536496    -2.47300
O1992       O  0.97415072  0.05453345  0.00223227    -0.79300
O1993       O  0.53645756  0.99878975  0.94067226    -0.71500
O1994       O  0.97375217  0.48942604  0.55862082    -2.32500
O1995       O  0.97130471  0.50241470  0.94538227    -2.28700
O1996       O  0.53771400  0.99038111  0.55821521    -0.73300
H1997       H  0.54972562  0.41266361  0.49336178     0.78700
H1998       H  0.96046899  0.48799865  0.58174104     0.79800
H1999       H  0.55167834  0.07436059  0.50712816     0.82000
H2000       H  0.95714637  0.50490372  0.92321783     0.79600
H2001       H  0.00481621  0.45343045  0.63051901     0.42700
H2002       H  0.48760638  0.02712286  0.63995546     0.41700
H2003       H  0.98794037  0.12896680  0.54275682     0.41300
H2004       H  0.52369037  0.13081905  0.97380757     0.39300
H2005       H  0.50528570  0.08422415  0.87200162     0.42400
H2006       H  0.99570765  0.48242770  0.86565618     0.37200
H2007       H  0.99409129  0.36614560  0.95599206     0.43300
H2008       H  0.51754771  0.35729143  0.52733968     0.39700
H2009       H  0.98839556  0.13316399  0.95686274     0.44600
H2010       H  0.49540503  0.42538984  0.86337460     0.43400
H2011       H  0.02035989  0.35636071  0.52540636     0.43500
H2012       H  0.98966319  0.03422507  0.63975153     0.43800
C2013       C  0.68233158  0.15496511  0.84069442    -0.02200
C2014       C  0.68205552  0.33328439  0.83016488    -0.02200
C2015       C  0.67916250  0.32713030  0.65618120    -0.02200
C2016       C  0.68451140  0.14806384  0.66306931    -0.02200
C2017       C  0.83045617  0.16648451  0.85087961    -0.02200
C2018       C  0.83377415  0.16228591  0.67368205    -0.02200
C2019       C  0.82861469  0.33597350  0.66428313    -0.02200
C2020       C  0.82992263  0.34096385  0.84209535    -0.02200
C2021       C  0.83302951  0.38130183  0.77218660    -0.05500
C2022       C  0.83924265  0.34757367  0.79556712     0.00400
C2023       C  0.85927241  0.32192931  0.77452045    -0.08200
C2024       C  0.85112339  0.31614152  0.73515316    -0.05500
C2025       C  0.83903222  0.34612416  0.70955773     0.00400
C2026       C  0.83519735  0.38200327  0.73035633    -0.08100
C2027       C  0.83646451  0.42216531  0.71259934     0.62300
H2028       H  0.82970290  0.40872864  0.78627405     0.13000
H2029       H  0.85704026  0.28775631  0.72531021     0.13000
C2030       C  0.89600108  0.32721555  0.77943210     0.62500
F2031       F  0.80933566  0.44314801  0.72369039    -0.22600
F2032       F  0.83808764  0.42236355  0.67296723    -0.20000
F2033       F  0.86394847  0.44087005  0.72629404    -0.19600
F2034       F  0.91321108  0.29945253  0.75929838    -0.19700
F2035       F  0.90548734  0.32573363  0.81749573    -0.20000
F2036       F  0.90511802  0.36297978  0.76502374    -0.22700
C2037       C  0.81081639  0.22867574  0.68280308    -0.05500
C2038       C  0.83314556  0.20731548  0.66138279     0.00400
C2039       C  0.84927960  0.22937229  0.63087925    -0.08200
C2040       C  0.84985449  0.27051138  0.63373285    -0.05500
C2041       C  0.83035949  0.29114408  0.66054817     0.00400
C2042       C  0.80944397  0.26894807  0.68373078    -0.08100
C2043       C  0.78306854  0.28577385  0.70850496     0.62300
H2044       H  0.79681505  0.21237618  0.70344596     0.13000
H2045       H  0.86490562  0.28667822  0.61368898     0.13000
C2046       C  0.86093148  0.21320637  0.59212773     0.62500
F2047       F  0.75607748  0.28513524  0.68711629    -0.22600
F2048       F  0.78484020  0.32157274  0.72398533    -0.20000
F2049       F  0.78016426  0.26333734  0.73906006    -0.19600
F2050       F  0.83857536  0.18736375  0.57762665    -0.19700
F2051       F  0.89112159  0.19628943  0.59524235    -0.20000
F2052       F  0.86389244  0.24202133  0.56431364    -0.22700
C2053       C  0.84740907  0.19372343  0.74326767    -0.05500
C2054       C  0.84477370  0.15911134  0.72042654     0.00400
C2055       C  0.85590945  0.12599935  0.74398350    -0.08200
C2056       C  0.85595131  0.12873083  0.78622107    -0.05500
C2057       C  0.84697622  0.16282094  0.80670025     0.00400
C2058       C  0.85692528  0.19451217  0.78276715    -0.08100
C2059       C  0.89267334  0.20819747  0.78562014     0.62300
H2060       H  0.85226916  0.22073065  0.72914998     0.13000
H2061       H  0.86392873  0.10391751  0.80224884     0.13000
C2062       C  0.87262059  0.08933456  0.72939753     0.62500
F2063       F  0.90810100  0.21153810  0.75027315    -0.22600
F2064       F  0.91140124  0.18253552  0.80645634    -0.20000
F2065       F  0.89442599  0.24413938  0.80123668    -0.19600
F2066       F  0.86692508  0.08116546  0.69130938    -0.19700
F2067       F  0.86244533  0.05750317  0.75070987    -0.20000
F2068       F  0.90587404  0.09258852  0.73482903    -0.22700
C2069       C  0.86386666  0.27645982  0.86197333    -0.05500
C2070       C  0.83480929  0.29604217  0.85062064     0.00400
C2071       C  0.80801238  0.27219984  0.85095344    -0.08200
C2072       C  0.80823507  0.23574891  0.86868779    -0.05500
C2073       C  0.83526627  0.21183039  0.86298182     0.00400
C2074       C  0.86518743  0.23470149  0.86690120    -0.08100
C2075       C  0.89725224  0.21983452  0.88356940     0.62300
H2076       H  0.88509407  0.29335743  0.86891171     0.13000
H2077       H  0.78505691  0.22489343  0.87694362     0.13000
C2078       C  0.78712373  0.27283663  0.81763143     0.62500
F2079       F  0.92341273  0.24143999  0.86999672    -0.22600
F2080       F  0.90363165  0.18208580  0.87461051    -0.20000
F2081       F  0.89645771  0.22368940  0.92332112    -0.19600
F2082       F  0.78906185  0.30404407  0.79373569    -0.19700
F2083       F  0.75647029  0.27200134  0.83229865    -0.20000
F2084       F  0.79691953  0.24060587  0.79703997    -0.22700
C2085       C  0.74294091  0.11699183  0.68232483    -0.05500
C2086       C  0.72366016  0.14037229  0.65709399     0.00400
C2087       C  0.74349212  0.16090052  0.62922270    -0.08200
C2088       C  0.77717555  0.16749764  0.63665014    -0.05500
C2089       C  0.79582051  0.14812485  0.66581884     0.00400
C2090       C  0.77790544  0.11588340  0.68169915    -0.08100
C2091       C  0.79249795  0.07598518  0.68730629     0.62300
H2092       H  0.73129857  0.09752071  0.70200612     0.13000
H2093       H  0.78944797  0.18692026  0.61692677     0.13000
C2094       C  0.73194870  0.17422877  0.58958225     0.62500
F2095       F  0.80838962  0.07355053  0.72163382    -0.22600
F2096       F  0.81330735  0.06689885  0.65741212    -0.20000
F2097       F  0.76878155  0.04745279  0.68782184    -0.19600
F2098       F  0.72974288  0.21401610  0.58862264    -0.19700
F2099       F  0.70257237  0.15791767  0.57930980    -0.20000
F2100       F  0.75441936  0.16316736  0.56174345    -0.22700
C2101       C  0.66662139  0.21377102  0.62145647    -0.05500
C2102       C  0.68155674  0.19420458  0.65380200     0.00400
C2103       C  0.69742668  0.22003784  0.67792617    -0.08200
C2104       C  0.69604634  0.26016998  0.67397777    -0.05500
C2105       C  0.67852884  0.28062707  0.64730441     0.00400
C2106       C  0.66561066  0.25576357  0.61678372    -0.08100
C2107       C  0.65368416  0.27081944  0.57774336     0.62300
H2108       H  0.65671407  0.19652494  0.59853763     0.13000
H2109       H  0.70589938  0.27697004  0.69716364     0.13000
C2110       C  0.71457232  0.20959543  0.71271623     0.62500
F2111       F  0.65147630  0.24166840  0.55059326    -0.22600
F2112       F  0.67528773  0.29765908  0.56287982    -0.20000
F2113       F  0.62299178  0.28656532  0.58096769    -0.19600
F2114       F  0.74476771  0.22259286  0.70787470    -0.19700
F2115       F  0.71977004  0.17262894  0.72174998    -0.20000
F2116       F  0.69701467  0.22751211  0.74135366    -0.22700
C2117       C  0.73767417  0.31974427  0.62303165    -0.05500
C2118       C  0.71759533  0.34086894  0.64906220     0.00400
C2119       C  0.73552747  0.37357416  0.66425634    -0.08200
C2120       C  0.77037686  0.37164207  0.66909604    -0.05500
C2121       C  0.79051511  0.34434979  0.65059339     0.03600
C2122       C  0.77263662  0.32305803  0.62098346    -0.08100
C2123       C  0.78766147  0.30212027  0.58672132     0.62300
H2124       H  0.72611826  0.29942198  0.60382305     0.13000
H2125       H  0.78226339  0.39475924  0.68383395     0.13000
C2126       C  0.72413935  0.41496733  0.66107835     0.62500
F2127       F  0.78666617  0.26279058  0.59337562    -0.22600
F2128       F  0.81911286  0.31334144  0.57864630    -0.20000
F2129       F  0.76971639  0.30998179  0.55368244    -0.19600
F2130       F  0.69295934  0.41830755  0.64805121    -0.19700
F2131       F  0.74364585  0.43427741  0.63439159    -0.20000
F2132       F  0.72723886  0.43345103  0.69608657    -0.22700
C2133       C  0.66498423  0.37141063  0.76488354    -0.05500
C2134       C  0.66732611  0.33700074  0.78650099     0.00400
C2135       C  0.65130559  0.30692282  0.76587064    -0.08200
C2136       C  0.65695577  0.30399604  0.72564743    -0.05500
C2137       C  0.66746713  0.33543987  0.70162151     0.00400
C2138       C  0.66289760  0.37165552  0.72289890    -0.08100
C2139       C  0.64643740  0.40819500  0.70798204     0.62300
H2140       H  0.66346046  0.39818143  0.78070669     0.13000
H2141       H  0.64901336  0.27743308  0.71301692     0.13000
C2142       C  0.61838154  0.29153392  0.77965645     0.62500
F2143       F  0.61740372  0.41311633  0.72798592    -0.22600
F2144       F  0.63835516  0.40789860  0.66963262    -0.20000
F2145       F  0.66586461  0.43995063  0.71514527    -0.19600
F2146       F  0.59905861  0.32194882  0.79149614    -0.19700
F2147       F  0.62187625  0.26533232  0.80926763    -0.20000
F2148       F  0.60131352  0.27354890  0.75034411    -0.22700
C2149       C  0.73557701  0.33306535  0.87043510    -0.05500
C2150       C  0.72055383  0.34426896  0.83490288     0.00400
C2151       C  0.74281197  0.36534605  0.80963502    -0.08200
C2152       C  0.77452204  0.37523747  0.82301248    -0.05500
C2153       C  0.79170356  0.35435448  0.85113230     0.00400
C2154       C  0.76912801  0.33996330  0.88019327    -0.08100
C2155       C  0.77355472  0.34755535  0.92318844     0.62300
H2156       H  0.72064339  0.31984689  0.89242931     0.13000
H2157       H  0.78551162  0.40045090  0.81103418     0.13000
C2158       C  0.73748549  0.37681236  0.76778303     0.62500
F2159       F  0.74590507  0.36424731  0.93904535    -0.22600
F2160       F  0.79841951  0.37345586  0.92945700    -0.20000
F2161       F  0.77814486  0.31343349  0.94310874    -0.19600
F2162       F  0.71840393  0.40912294  0.76469028    -0.19700
F2163       F  0.72564624  0.34585706  0.74731917    -0.20000
F2164       F  0.76629154  0.38720983  0.75004654    -0.22700
C2165       C  0.67688116  0.10726961  0.73094276    -0.05500
C2166       C  0.66928514  0.13985488  0.70731458     0.00400
C2167       C  0.65138503  0.16745743  0.72973822    -0.08200
C2168       C  0.65835825  0.17211981  0.77008906    -0.05500
C2169       C  0.67307075  0.14363777  0.79459284     0.00400
C2170       C  0.67621695  0.10743186  0.77320251    -0.08100
C2171       C  0.67535121  0.06734570  0.79114657     0.62300
H2172       H  0.68189969  0.08045071  0.71645286     0.13000
H2173       H  0.65016847  0.19881274  0.78218601     0.13000
C2174       C  0.61920400  0.18404445  0.71556818     0.62500
F2175       F  0.64796327  0.04820960  0.77781347    -0.22600
F2176       F  0.67390023  0.06754122  0.83081695    -0.20000
F2177       F  0.70261529  0.04664595  0.77994673    -0.19600
F2178       F  0.60011573  0.15468096  0.70084684    -0.19700
F2179       F  0.62381238  0.21232396  0.68807402    -0.20000
F2180       F  0.60143564  0.20010121  0.74547544    -0.22700
C2181       C  0.73871061  0.11946262  0.83312137    -0.05500
C2182       C  0.71946187  0.14397384  0.85508040     0.00400
C2183       C  0.73777545  0.15907137  0.88766525    -0.08200
C2184       C  0.77305991  0.15817462  0.88690670    -0.05500
C2185       C  0.79193255  0.15049170  0.85287957     0.00400
C2186       C  0.77276213  0.12615139  0.82649537    -0.08100
C2187       C  0.78398998  0.10903927  0.78884535     0.62300
H2188       H  0.72580541  0.09986463  0.81565462     0.13000
H2189       H  0.78543588  0.16945027  0.91159608     0.13000
C2190       C  0.72334217  0.17853398  0.92308179     0.62500
F2191       F  0.75987766  0.08949107  0.76884421    -0.22600
F2192       F  0.80780127  0.08198617  0.79536285    -0.20000
F2193       F  0.79304075  0.13891695  0.76497145    -0.19600
F2194       F  0.73664772  0.16234335  0.95617481    -0.19700
F2195       F  0.69015395  0.17482216  0.92637207    -0.20000
F2196       F  0.73115795  0.21736049  0.92208216    -0.22700
C2197       C  0.69629464  0.26392840  0.81426694    -0.05500
C2198       C  0.68060421  0.28743303  0.84128738     0.00400
C2199       C  0.66721657  0.26567505  0.87409106    -0.08200
C2200       C  0.66414685  0.22404246  0.87164066    -0.05500
C2201       C  0.68168157  0.20144178  0.84419197     0.00400
C2202       C  0.70116481  0.22377060  0.81900876    -0.08100
C2203       C  0.73164749  0.20764671  0.80207938     0.62300
H2204       H  0.70882487  0.27874873  0.79086455     0.13000
H2205       H  0.64960499  0.20925944  0.89332187     0.13000
C2206       C  0.65890008  0.28162238  0.91399981     0.62500
F2207       F  0.74420454  0.23181469  0.77605996    -0.22600
F2208       F  0.72914374  0.17317923  0.78482467    -0.20000
F2209       F  0.75355198  0.20445035  0.83016476    -0.19600
F2210       F  0.62554005  0.28024092  0.91978581    -0.19700
F2211       F  0.66983994  0.31856921  0.92036800    -0.20000
F2212       F  0.67346089  0.25878578  0.94205714    -0.22700
C2213       C  0.60235762  0.11015291  0.88576604    -0.05500
C2214       C  0.61449025  0.08638457  0.91514591     0.00400
C2215       C  0.64834001  0.08619174  0.92212491    -0.08200
C2216       C  0.66852125  0.10818903  0.89753510    -0.05500
C2217       C  0.65676089  0.13388009  0.86802814     0.00400
C2218       C  0.62173559  0.13549118  0.86382972    -0.08100
C2219       C  0.60235563  0.15964774  0.83499650     0.62300
H2220       H  0.57658630  0.10832078  0.87925599     0.13000
H2221       H  0.69416279  0.10375507  0.90166426     0.13000
C2222       C  0.66371022  0.06276890  0.95481751     0.62500
F2223       F  0.57017813  0.16428629  0.84668747    -0.22600
F2224       F  0.60186004  0.14146738  0.79957117    -0.20000
F2225       F  0.61428219  0.19622667  0.83172167    -0.19600
F2226       F  0.66516153  0.03436974  0.45809502    -0.19700
F2227       F  0.64810012  0.07066077  0.98945709    -0.20000
F2228       F  0.69645477  0.07145466  0.95972685    -0.22700
C2229       C  0.66717892  0.36940961  0.59659154    -0.05500
C2230       C  0.65478381  0.34693924  0.62787976     0.00400
C2231       C  0.61973126  0.34448679  0.63154764    -0.08200
C2232       C  0.60055517  0.36890811  0.60865149    -0.05500
C2233       C  0.61338396  0.39395120  0.58037165     0.00400
C2234       C  0.64740279  0.39305927  0.57304318    -0.08100
C2235       C  0.66327126  0.41707671  0.54112015     0.62300
H2236       H  0.69299906  0.36939457  0.59072876     0.13000
H2237       H  0.57459036  0.36940096  0.61424693     0.13000
C2238       C  0.60052149  0.31882719  0.65976741     0.62500
F2239       F  0.69614977  0.40891767  0.53685933    -0.22600
F2240       F  0.66055471  0.45585421  0.54977307    -0.20000
F2241       F  0.64687954  0.40173091  0.00316227    -0.19600
F2242       F  0.59924259  0.33569638  0.69581610    -0.19700
F2243       F  0.61338308  0.28248245  0.66210899    -0.20000
F2244       F  0.56854348  0.31352293  0.64785068    -0.22700
C2245       C  0.84631164  0.11905287  0.61462944    -0.05500
C2246       C  0.85847885  0.14093617  0.64618152     0.00400
C2247       C  0.89337524  0.14149883  0.65026801    -0.08200
C2248       C  0.91232335  0.11495329  0.62921934    -0.05500
C2249       C  0.89982291  0.09280570  0.59851669     0.00400
C2250       C  0.86613566  0.09676988  0.58982621    -0.08100
C2251       C  0.85075171  0.07884587  0.55410681     0.62300
H2252       H  0.82073773  0.12014959  0.60796664     0.13000
H2253       H  0.93820399  0.11376812  0.63549956     0.13000
C2254       C  0.91319669  0.17114503  0.67245276     0.62500
F2255       F  0.81814700  0.08851690  0.55006128    -0.22600
F2256       F  0.85245592  0.03918177  0.55652159    -0.20000
F2257       F  0.86731897  0.09040493  0.02113108    -0.19600
F2258       F  0.92589014  0.15480587  0.70558593    -0.19700
F2259       F  0.89564995  0.20330817  0.68173635    -0.20000
F2260       F  0.93909632  0.18387516  0.64981830    -0.22700
C2261       C  0.63198489  0.13718717  0.62747820    -0.05500
C2262       C  0.66342349  0.12263297  0.63487217     0.00400
C2263       C  0.67108069  0.08555558  0.61731825    -0.08200
C2264       C  0.64662440  0.06683733  0.59532028    -0.05500
C2265       C  0.61639074  0.08354080  0.58786530     0.00400
C2266       C  0.61035885  0.12108541  0.60118965    -0.08100
C2267       C  0.58194516  0.14564531  0.58740282     0.62300
H2268       H  0.62443207  0.16359503  0.64046241     0.13000
H2269       H  0.65042536  0.03807717  0.58421103     0.13000
C2270       C  0.70270640  0.06267398  0.62188717     0.62500
F2271       F  0.57416780  0.13738231  0.54935193    -0.22600
F2272       F  0.58978934  0.18452570  0.58871829    -0.20000
F2273       F  0.55522250  0.13925623  0.61107908    -0.19600
F2274       F  0.70694614  0.05259554  0.66008425    -0.19700
F2275       F  0.72911834  0.08301722  0.60768526    -0.20000
F2276       F  0.70238802  0.02837065  0.60144614    -0.22700
C2277       C  0.87255836  0.39344499  0.85044117    -0.05500
C2278       C  0.85369768  0.36428647  0.86885612     0.00400
C2279       C  0.86028605  0.35850331  0.91004933    -0.08200
C2280       C  0.87965590  0.38590307  0.92905642    -0.05500
C2281       C  0.89561915  0.41551582  0.90960268     0.00400
C2282       C  0.89390361  0.41784925  0.86921619    -0.08100
C2283       C  0.91550868  0.44292657  0.84329607     0.62300
H2284       H  0.87351644  0.39700816  0.81995035     0.13000
H2285       H  0.88542535  0.38179499  0.95944010     0.13000
C2286       C  0.85296256  0.32423486  0.93734070     0.62500
F2287       F  0.93618388  0.41918549  0.82252100    -0.22600
F2288       F  0.93422418  0.46911362  0.86313154    -0.20000
F2289       F  0.89632951  0.46329044  0.81739151    -0.19600
F2290       F  0.88205848  0.30575494  0.94566012    -0.19700
F2291       F  0.83176743  0.29705738  0.92415969    -0.20000
F2292       F  0.84022856  0.33741169  0.97206972    -0.22700
C2293       C  0.88470066  0.12706338  0.93644680    -0.05500
C2294       C  0.89367839  0.09213710  0.91978560     0.00400
C2295       C  0.87516519  0.07789224  0.88881859    -0.08200
C2296       C  0.85083554  0.10125777  0.87290165    -0.05500
C2297       C  0.84759413  0.14027289  0.88233105     0.00400
C2298       C  0.85966964  0.15033409  0.92054317    -0.08100
C2299       C  0.84167031  0.17415848  0.95119914     0.62300
H2300       H  0.89615787  0.13471843  0.96359167     0.13000
H2301       H  0.83495345  0.08938533  0.85162753     0.13000
C2302       C  0.88241488  0.03928319  0.87096450     0.62500
F2303       F  0.81853152  0.15077406  0.96882143    -0.22600
F2304       F  0.82660226  0.20669312  0.93760558    -0.20000
F2305       F  0.86288524  0.18654880  0.97975758    -0.19600
F2306       F  0.87879792  0.01041033  0.89841178    -0.19700
F2307       F  0.91457689  0.53869352  0.86109304    -0.20000
F2308       F  0.86178444  0.03130565  0.84032196    -0.22700
C2309       C  0.62775211  0.34567742  0.86380322    -0.05500
C2310       C  0.65962020  0.35971271  0.85732518     0.00400
C2311       C  0.66674952  0.39671249  0.87555916    -0.08200
C2312       C  0.64324895  0.41356345  0.90078797    -0.05500
C2313       C  0.61167827  0.39907243  0.90590102     0.00400
C2314       C  0.60378927  0.36403084  0.88661094    -0.08100
C2315       C  0.57056576  0.34447127  0.89038738     0.62300
H2316       H  0.62195988  0.31808014  0.85224244     0.13000
H2317       H  0.64890994  0.43998961  0.91586548     0.13000
C2318       C  0.69650123  0.42222155  0.86770067     0.62500
F2319       F  0.56996804  0.30822865  0.87371509    -0.22600
F2320       F  0.54709471  0.36635791  0.87182907    -0.20000
F2321       F  0.56264238  0.33986071  0.92909223    -0.19600
F2322       F  0.70118317  0.42637813  0.82876416    -0.19700
F2323       F  0.72398689  0.40777048  0.88500563    -0.20000
F2324       F  0.69275233  0.45933034  0.88177209    -0.22700
C2325       C  0.90794256  0.38078437  0.61898270    -0.05500
C2326       C  0.89571611  0.40284064  0.58835948     0.00400
C2327       C  0.86179809  0.40224574  0.58134986    -0.08200
C2328       C  0.84164075  0.38094037  0.60660942    -0.05500
C2329       C  0.85377628  0.35646999  0.63659326     0.00400
C2330       C  0.88886874  0.35501825  0.64062152    -0.08100
C2331       C  0.91015896  0.32813539  0.66501278     0.62300
H2332       H  0.93387671  0.38206027  0.62517956     0.13000
H2333       H  0.81581180  0.38412843  0.60238118     0.13000
C2334       C  0.84645704  0.42390415  0.54770605     0.62500
F2335       F  0.93499739  0.31348469  0.64206360    -0.22600
F2336       F  0.89493872  0.29673160  0.68041478    -0.20000
F2337       F  0.92429678  0.34898545  0.69449017    -0.19600
F2338       F  0.85767710  0.41556512  0.01084429    -0.19700
F2339       F  0.84964429  0.46303087  0.55337437    -0.20000
F2340       F  0.81353569  0.41581678  0.54373897    -0.22700
O2341       O  0.94978190  0.93051435  0.42204128    -0.75000
O2342       O  0.91163340  0.96104784  0.45944106    -0.53900
C2343       C  0.92051179  0.93844528  0.43189685     0.78700
O2344       O  0.55901486  0.90768516  0.06399965    -0.59600
O2345       O  0.59894968  0.94430431  0.03681402    -0.52700
C2346       C  0.58927808  0.91609688  0.05818290     0.70700
O2347       O  0.94960428  0.91671646  0.06760734    -0.74200
O2348       O  0.91002327  0.95485242  0.04244449    -0.54700
C2349       C  0.91950098  0.92631624  0.06330357     0.76700
O2350       O  0.55688160  0.92186561  0.41835510    -0.59300
O2351       O  0.59719202  0.95080315  0.45257121    -0.52400
C2352       C  0.58713582  0.92672896  0.42648485     0.73300
Zr2353     Zr  0.50412135  0.94621428  0.43928771     2.54700
O2354       O  0.49851302  0.87648671  0.43463742    -0.79900
O2355       O  0.50548324  0.95729757  0.36958006    -0.93300
Zr2356     Zr  0.50417956  0.93048364  0.05068683     2.64700
O2357       O  0.00338884  0.86587311  0.05663535    -0.98300
O2358       O  0.50402453  0.93572982  0.12095965    -0.80300
O2359       O  0.97225779  0.94353291  0.49896137    -0.83700
O2360       O  0.53512551  0.93363238  0.99279814    -2.18400
O2361       O  0.55889738  0.57463399  0.42925630    -0.67100
O2362       O  0.59803694  0.53619425  0.45517169    -0.51600
C2363       C  0.58881445  0.56471508  0.43410631     0.71700
O2364       O  0.95249883  0.56577819  0.08793399    -0.60000
O2365       O  0.91236097  0.53991159  0.05129379    -0.52000
C2366       C  0.92229868  0.56216690  0.07879724     0.73500
O2367       O  0.56230220  0.56621820  0.07950313    -0.71400
O2368       O  0.60043700  0.53455752  0.04338652    -0.50100
C2369       C  0.59185145  0.55975125  0.06890813     0.74900
O2370       O  0.94848798  0.57787008  0.43072547    -0.66700
O2371       O  0.91030360  0.54239768  0.46364718    -0.53900
C2372       C  0.91878854  0.56921361  0.43975858     0.73300
Zr2373     Zr  0.00372374  0.55585023  0.44709705     2.77500
O2374       O  0.00315598  0.62552967  0.45547999    -0.97500
O2375       O  0.00341752  0.56301953  0.37686715    -0.78300
Zr2376     Zr  0.00539733  0.54619444  0.06388998     2.70100
O2377       O  0.50668391  0.61787093  0.06142709    -0.79500
O2378       O  0.00748681  0.54390628  0.13437375    -0.98600
Zr2379     Zr  0.94152968  0.00175746  0.50408266     2.21500
Zr2380     Zr  0.56966336  0.49141743  0.00089279     2.11100
O2381       O  0.53815562  0.54970604  0.00469490    -2.47300
O2382       O  0.97359152  0.55309340  0.50539297    -0.79300
O2383       O  0.53678446  0.49903155  0.44072442    -0.71500
O2384       O  0.97427325  0.99335246  0.05852505    -2.32500
O2385       O  0.97220629  0.00378132  0.44509753    -2.28700
O2386       O  0.53906830  0.49043119  0.06027531    -0.73300
H2387       H  0.54785578  0.91036966  0.99021557     0.78700
H2388       H  0.96084353  0.99272369  0.08153911     0.79800
H2389       H  0.55223427  0.57207094  0.00526826     0.82000
H2390       H  0.95799722  0.00593854  0.42295529     0.79600
H2391       H  0.98728482  0.95229094  0.13170408     0.42700
H2392       H  0.49141709  0.52602105  0.14035045     0.41700
H2393       H  0.99182946  0.62462779  0.08368869     0.41300
H2394       H  0.50976230  0.63446060  0.42383270     0.39300
H2395       H  0.48574575  0.53792630  0.36900253     0.42400
H2396       H  0.99554316  0.97862664  0.36550388     0.37200
H2397       H  0.98362042  0.87053826  0.46224246     0.43300
H2398       H  0.49507407  0.85422158  0.08066005     0.39700
H2399       H  0.00663336  0.63610273  0.42907534     0.44600
H2400       H  0.52792549  0.96645313  0.36396200     0.43400
H2401       H  0.98633660  0.85836890  0.03784489     0.43500
H2402       H  0.01367107  0.57037030  0.14217711     0.43800
C2403       C  0.68244226  0.65838861  0.34208620    -0.02200
C2404       C  0.68267837  0.83618488  0.33004130    -0.02200
C2405       C  0.68020003  0.82731432  0.15639034    -0.02200
C2406       C  0.68416808  0.64855232  0.16517070    -0.02200
C2407       C  0.83096416  0.66825903  0.35152792    -0.02200
C2408       C  0.83406205  0.66052796  0.17461046    -0.02200
C2409       C  0.83025581  0.83467378  0.16322873    -0.02200
C2410       C  0.83155755  0.84324469  0.34086318    -0.02200
C2411       C  0.83535674  0.88267380  0.26995688    -0.05500
C2412       C  0.84179383  0.84965044  0.29437954     0.00400
C2413       C  0.86176532  0.82352261  0.27392561    -0.08200
C2414       C  0.85359696  0.81658993  0.23451108    -0.05500
C2415       C  0.84091179  0.84573327  0.20828173     0.00400
C2416       C  0.83722344  0.88213729  0.22806977    -0.08100
C2417       C  0.83863744  0.92167558  0.20890448     0.62300
H2418       H  0.83136810  0.91044346  0.28312917     0.13000
H2419       H  0.85963712  0.78804628  0.22504451     0.13000
C2420       C  0.89838013  0.82885539  0.27997193     0.62500
F2421       F  0.81271354  0.94401957  0.22127662    -0.22600
F2422       F  0.83799940  0.92072030  0.16926049    -0.20000
F2423       F  0.86735015  0.93962874  0.21977254    -0.19600
F2424       F  0.91612809  0.80111307  0.26048328    -0.19700
F2425       F  0.90691448  0.82755758  0.31837487    -0.20000
F2426       F  0.90776770  0.86470832  0.26609493    -0.22700
C2427       C  0.81156484  0.72723253  0.18159695    -0.05500
C2428       C  0.83410040  0.70536970  0.16129196     0.00400
C2429       C  0.85131305  0.72703325  0.13139872    -0.08200
C2430       C  0.85225057  0.76836711  0.13396554    -0.05500
C2431       C  0.83238260  0.78955803  0.16014948     0.00400
C2432       C  0.81111225  0.76748618  0.18296040    -0.08100
C2433       C  0.78492044  0.78406248  0.20777197     0.62300
H2434       H  0.79673426  0.71125244  0.20160698     0.13000
H2435       H  0.86762959  0.78418562  0.11396362     0.13000
C2436       C  0.86330045  0.71012121  0.09319072     0.62500
F2437       F  0.75764313  0.78251270  0.18683319    -0.22600
F2438       F  0.78664232  0.82016026  0.22241171    -0.20000
F2439       F  0.78287010  0.76172770  0.23865568    -0.19600
F2440       F  0.84126921  0.68358602  0.07924670    -0.19700
F2441       F  0.89359238  0.69359448  0.09692131    -0.20000
F2442       F  0.86611726  0.73837163  0.06481000    -0.22700
C2443       C  0.84752298  0.69337064  0.24342861    -0.05500
C2444       C  0.84492752  0.65827852  0.22136043     0.00400
C2445       C  0.85586169  0.62555324  0.24558691    -0.08200
C2446       C  0.85594209  0.62916572  0.28773893    -0.05500
C2447       C  0.84724974  0.66375467  0.30743334     0.00400
C2448       C  0.85710282  0.69497074  0.28283497    -0.08100
C2449       C  0.89274252  0.70902079  0.28535356     0.62300
H2450       H  0.85233356  0.72013237  0.22881675     0.13000
H2451       H  0.86346812  0.60456646  0.30443363     0.13000
C2452       C  0.87200835  0.58824595  0.23169678     0.62500
F2453       F  0.90812151  0.71197941  0.24993348    -0.22600
F2454       F  0.91166677  0.68376089  0.30640531    -0.20000
F2455       F  0.89420377  0.74522310  0.30046710    -0.19600
F2456       F  0.86534663  0.57886134  0.19407727    -0.19700
F2457       F  0.86203944  0.55721571  0.25432031    -0.20000
F2458       F  0.90537391  0.59126721  0.23604013    -0.22700
C2459       C  0.86535960  0.77850564  0.36259102    -0.05500
C2460       C  0.83659735  0.79821741  0.35009959     0.00400
C2461       C  0.80980107  0.77432657  0.35022006    -0.08200
C2462       C  0.80970966  0.73827600  0.36884796    -0.05500
C2463       C  0.83641733  0.71381855  0.36318021     0.00400
C2464       C  0.86648862  0.73655668  0.36721083    -0.08100
C2465       C  0.89869429  0.72124650  0.38303594     0.62300
H2466       H  0.88662033  0.79521784  0.36987606     0.13000
H2467       H  0.78657684  0.72807053  0.37803606     0.13000
C2468       C  0.78949826  0.77454540  0.31642607     0.62500
F2469       F  0.92478854  0.74214578  0.36821079    -0.22600
F2470       F  0.90430598  0.68324331  0.37443690    -0.20000
F2471       F  0.89889469  0.72560454  0.42275826    -0.19600
F2472       F  0.79380347  0.80414860  0.29105425    -0.19700
F2473       F  0.75854401  0.77712086  0.33009531    -0.20000
F2474       F  0.79780699  0.74059299  0.29770792    -0.22700
C2475       C  0.74240475  0.61823537  0.18581143    -0.05500
C2476       C  0.72338288  0.64093360  0.15979757     0.00400
C2477       C  0.74336032  0.66004877  0.13098042    -0.08200
C2478       C  0.77737521  0.66561852  0.13754229    -0.05500
C2479       C  0.79583668  0.64682245  0.16725127     0.00400
C2480       C  0.77728941  0.61593577  0.18477475    -0.08100
C2481       C  0.79082467  0.57564197  0.19131603     0.62300
H2482       H  0.73041362  0.59973346  0.20612027     0.13000
H2483       H  0.79005534  0.68379588  0.11694044     0.13000
C2484       C  0.73166095  0.67248720  0.09108003     0.62500
F2485       F  0.80815118  0.57386648  0.22459865    -0.22600
F2486       F  0.80999047  0.56444858  0.16059090    -0.20000
F2487       F  0.76634135  0.54820399  0.19476034    -0.19600
F2488       F  0.73034032  0.71226905  0.08885336    -0.19700
F2489       F  0.70182056  0.65697345  0.08161413    -0.20000
F2490       F  0.75351263  0.65970926  0.06330676    -0.22700
C2491       C  0.66700131  0.71398945  0.12316025    -0.05500
C2492       C  0.68155024  0.69461629  0.15580473     0.00400
C2493       C  0.69761763  0.72048015  0.17989768    -0.08200
C2494       C  0.69680398  0.76058967  0.17541126    -0.05500
C2495       C  0.67957815  0.78081543  0.14830482     0.00400
C2496       C  0.66703462  0.75585976  0.11775724    -0.08100
C2497       C  0.65703706  0.77058276  0.07787654     0.62300
H2498       H  0.65669407  0.69673782  0.10047359     0.13000
H2499       H  0.70700331  0.77772294  0.19824981     0.13000
C2500       C  0.71433404  0.71018559  0.21510831     0.62500
F2501       F  0.65756096  0.74135508  0.05069780    -0.22600
F2502       F  0.67854675  0.79832113  0.06465816    -0.20000
F2503       F  0.62575196  0.78506058  0.07870533    -0.19600
F2504       F  0.74499377  0.72168541  0.21050262    -0.19700
F2505       F  0.71826112  0.67324638  0.22502746    -0.20000
F2506       F  0.69718395  0.72944566  0.24317628    -0.22700
C2507       C  0.73876573  0.81843100  0.12364400    -0.05500
C2508       C  0.71880508  0.84052887  0.14902190     0.00400
C2509       C  0.73702439  0.87352228  0.16308811    -0.08200
C2510       C  0.77199456  0.87141386  0.16760893    -0.05500
C2511       C  0.79190605  0.84303720  0.15011946     0.03600
C2512       C  0.77372063  0.82122125  0.12133045    -0.08100
C2513       C  0.78831984  0.79959141  0.08727497     0.62300
H2514       H  0.72718842  0.79763832  0.10504882     0.13000
H2515       H  0.78397244  0.89490523  0.18163329     0.13000
C2516       C  0.72525055  0.91484057  0.16002884     0.62500
F2517       F  0.78606651  0.76034191  0.09398991    -0.22600
F2518       F  0.82014957  0.80922641  0.07937109    -0.20000
F2519       F  0.77078119  0.80834919  0.05415786    -0.19600
F2520       F  0.69386374  0.91775408  0.14748517    -0.19700
F2521       F  0.74431283  0.93439055  0.13309346    -0.20000
F2522       F  0.72849771  0.93351747  0.19487875    -0.22700
C2523       C  0.66551188  0.87313010  0.26419640    -0.05500
C2524       C  0.66789642  0.83911792  0.28635653     0.00400
C2525       C  0.65185539  0.80877121  0.26620340    -0.08200
C2526       C  0.65746731  0.80523443  0.22599875    -0.05500
C2527       C  0.66820170  0.83629037  0.20157208     0.00400
C2528       C  0.66357422  0.87280380  0.22228836    -0.08100
C2529       C  0.64726539  0.90926209  0.20695717     0.62300
H2530       H  0.66354246  0.90008075  0.27939807     0.13000
H2531       H  0.64946800  0.77850418  0.21376067     0.13000
C2532       C  0.61913340  0.79337837  0.28051997     0.62500
F2533       F  0.61874709  0.91529538  0.22772143    -0.22600
F2534       F  0.63838067  0.90796348  0.16885811    -0.20000
F2535       F  0.66721080  0.94086672  0.21278147    -0.19600
F2536       F  0.59988101  0.82365747  0.29281385    -0.19700
F2537       F  0.62313286  0.76726662  0.31002663    -0.20000
F2538       F  0.60175228  0.77536562  0.25149663    -0.22700
C2539       C  0.73668324  0.83775818  0.37048744    -0.05500
C2540       C  0.72135638  0.84697862  0.33440530     0.00400
C2541       C  0.74381835  0.86555438  0.30752300    -0.08200
C2542       C  0.77586004  0.87524722  0.31952390    -0.05500
C2543       C  0.79299887  0.85614949  0.34868085     0.00400
C2544       C  0.77050662  0.84522100  0.37934137    -0.08100
C2545       C  0.77483859  0.85917641  0.42079946     0.62300
H2546       H  0.72162418  0.82702954  0.39372364     0.13000
H2547       H  0.78679326  0.89977579  0.30624779     0.13000
C2548       C  0.73829266  0.87511929  0.26539942     0.62500
F2549       F  0.74769372  0.87942658  0.43320640    -0.22600
F2550       F  0.80060889  0.88450129  0.42378875    -0.20000
F2551       F  0.77796102  0.82841144  0.44597359    -0.19600
F2552       F  0.71991972  0.90784266  0.26160541    -0.19700
F2553       F  0.72561823  0.84363756  0.24650035    -0.20000
F2554       F  0.76709416  0.88396233  0.24677606    -0.22700
C2555       C  0.67570971  0.60836136  0.23339256    -0.05500
C2556       C  0.66838361  0.64062998  0.20917769     0.00400
C2557       C  0.65100566  0.66890998  0.23121824    -0.08200
C2558       C  0.65872640  0.67461381  0.27122358    -0.05500
C2559       C  0.67335714  0.64647091  0.29614636     0.00400
C2560       C  0.67553882  0.60959474  0.27567967    -0.08100
C2561       C  0.67399817  0.56999754  0.29472950     0.62300
H2562       H  0.68057838  0.58121137  0.21937128     0.13000
H2563       H  0.65101799  0.70175237  0.28273676     0.13000
C2564       C  0.61859112  0.68491622  0.21729697     0.62500
F2565       F  0.64527450  0.55210732  0.28377357    -0.22600
F2566       F  0.67456002  0.57099236  0.33437590    -0.20000
F2567       F  0.69989884  0.54761443  0.28235656    -0.19600
F2568       F  0.59934017  0.65495382  0.20409446    -0.19700
F2569       F  0.62272353  0.71207396  0.18862935    -0.20000
F2570       F  0.60138913  0.70217064  0.24697232    -0.22700
C2571       C  0.73855860  0.62222157  0.33477238    -0.05500
C2572       C  0.71953415  0.64705440  0.35664386     0.00400
C2573       C  0.73818859  0.66211492  0.38900263    -0.08200
C2574       C  0.77349115  0.66129468  0.38779791    -0.05500
C2575       C  0.79212124  0.65319482  0.35369973     0.00400
C2576       C  0.77261827  0.62868461  0.32779549    -0.08100
C2577       C  0.78354370  0.61091695  0.29037009     0.62300
H2578       H  0.72545655  0.60246844  0.31758930     0.13000
H2579       H  0.78609456  0.67263152  0.41233157     0.13000
C2580       C  0.72419276  0.68032872  0.42528955     0.62500
F2581       F  0.75915021  0.59146018  0.27075657    -0.22600
F2582       F  0.80703389  0.58357397  0.29720411    -0.20000
F2583       F  0.79291671  0.64031565  0.26608118    -0.19600
F2584       F  0.73622151  0.66101216  0.45739233    -0.19700
F2585       F  0.69083882  0.67898289  0.42771625    -0.20000
F2586       F  0.73399163  0.71848479  0.42704122    -0.22700
C2587       C  0.69695562  0.76707937  0.31538153    -0.05500
C2588       C  0.68128704  0.79069787  0.34208966     0.00400
C2589       C  0.66791117  0.76922906  0.37507466    -0.08200
C2590       C  0.66453083  0.72761230  0.37277454    -0.05500
C2591       C  0.68193330  0.70484438  0.34534062     0.00400
C2592       C  0.70151042  0.72702720  0.32016780    -0.08100
C2593       C  0.73222151  0.71131386  0.30397203     0.62300
H2594       H  0.70933562  0.78169592  0.29176685     0.13000
H2595       H  0.64998416  0.71300250  0.39457218     0.13000
C2596       C  0.66007707  0.78540935  0.41497829     0.62500
F2597       F  0.74461974  0.73533958  0.27743042    -0.22600
F2598       F  0.73029569  0.67655698  0.28731897    -0.20000
F2599       F  0.75353563  0.70904708  0.33281993    -0.19600
F2600       F  0.62691211  0.78272202  0.42191373    -0.19700
F2601       F  0.67002477  0.82289159  0.42042856    -0.20000
F2602       F  0.67600594  0.76355866  0.44275219    -0.22700
C2603       C  0.60179124  0.61273319  0.38399057    -0.05500
C2604       C  0.61348580  0.58856265  0.41327153     0.00400
C2605       C  0.64708114  0.58929608  0.42189819    -0.08200
C2606       C  0.66755634  0.61269256  0.39910189    -0.05500
C2607       C  0.65633528  0.63792659  0.36908221     0.00400
C2608       C  0.62139948  0.63894167  0.36350764    -0.08100
C2609       C  0.60241775  0.66323868  0.33451703     0.62300
H2610       H  0.57623879  0.61064772  0.37639251     0.13000
H2611       H  0.69310331  0.60928764  0.40456548     0.13000
C2612       C  0.66197352  0.56513602  0.45430329     0.62500
F2613       F  0.57017820  0.66819981  0.34581395    -0.22600
F2614       F  0.60203041  0.64493141  0.29915632    -0.20000
F2615       F  0.61469405  0.69963783  0.33151083    -0.19600
F2616       F  0.65844313  0.52019883  0.94289818    -0.19700
F2617       F  0.64602913  0.57255266  0.48881779    -0.20000
F2618       F  0.69470204  0.57334037  0.45992547    -0.22700
C2619       C  0.66782844  0.86903251  0.09654590    -0.05500
C2620       C  0.65563280  0.84650095  0.12783151     0.00400
C2621       C  0.62056500  0.84311028  0.13103750    -0.08200
C2622       C  0.60109687  0.86698374  0.10789492    -0.05500
C2623       C  0.61361325  0.89160250  0.07916240     0.00400
C2624       C  0.64772819  0.89136431  0.07211074    -0.08100
C2625       C  0.66340057  0.91441010  0.03934718     0.62300
H2626       H  0.69372387  0.86975419  0.09113814     0.13000
H2627       H  0.57510666  0.86719158  0.11340156     0.13000
C2628       C  0.60147139  0.81707900  0.15898223     0.62500
F2629       F  0.69623294  0.90597267  0.03500808    -0.22600
F2630       F  0.66083755  0.95344443  0.04682045    -0.20000
F2631       F  0.64345265  0.90454437  0.50099678    -0.19600
F2632       F  0.59935300  0.83409814  0.19490807    -0.19700
F2633       F  0.61489751  0.78111455  0.16178903    -0.20000
F2634       F  0.56981379  0.81079917  0.14634835    -0.22700
C2635       C  0.84577733  0.61508393  0.11721300    -0.05500
C2636       C  0.85845288  0.63786744  0.14777407     0.00400
C2637       C  0.89338738  0.63767030  0.15172568    -0.08200
C2638       C  0.91176076  0.60993296  0.13144835    -0.05500
C2639       C  0.89867697  0.58678725  0.10172414     0.00400
C2640       C  0.86504007  0.59138950  0.09317805    -0.08100
C2641       C  0.84894913  0.57211430  0.05874194     0.62300
H2642       H  0.82022184  0.61658179  0.11062697     0.13000
H2643       H  0.93767846  0.60858882  0.13746296     0.13000
C2644       C  0.91383942  0.66750302  0.17298554     0.62500
F2645       F  0.81664667  0.58293112  0.05423356    -0.22600
F2646       F  0.84959231  0.53270873  0.06391998    -0.20000
F2647       F  0.86876300  0.58769949  0.51942715    -0.19600
F2648       F  0.92725452  0.65171874  0.20599302    -0.19700
F2649       F  0.89657015  0.69979437  0.18240871    -0.20000
F2650       F  0.93931091  0.67979984  0.14944293    -0.22700
C2651       C  0.63174102  0.63694769  0.12911222    -0.05500
C2652       C  0.66335270  0.62297178  0.13662418     0.00400
C2653       C  0.67168509  0.58636828  0.11849041    -0.08200
C2654       C  0.64783024  0.56753902  0.09556569    -0.05500
C2655       C  0.61727061  0.58346994  0.08818751     0.00400
C2656       C  0.61047364  0.62060667  0.10239218    -0.08100
C2657       C  0.58162873  0.64466033  0.08898642     0.62300
H2658       H  0.62384476  0.66314071  0.14229106     0.13000
H2659       H  0.65234050  0.53920015  0.08377767     0.13000
C2660       C  0.70348573  0.56401892  0.12364922     0.62500
F2661       F  0.57331190  0.63601957  0.05119166    -0.22600
F2662       F  0.58923172  0.68361532  0.08972045    -0.20000
F2663       F  0.55531003  0.63816964  0.11331749    -0.19600
F2664       F  0.70754877  0.55477108  0.16206916    -0.19700
F2665       F  0.72978685  0.58444626  0.10930052    -0.20000
F2666       F  0.70363177  0.52936228  0.10386081    -0.22700
C2667       C  0.87231996  0.89752572  0.35043738    -0.05500
C2668       C  0.85441102  0.86717177  0.36813506     0.00400
C2669       C  0.86086246  0.86084146  0.40922837    -0.08200
C2670       C  0.88069639  0.88750894  0.42868403    -0.05500
C2671       C  0.89585020  0.91822842  0.41002735     0.00400
C2672       C  0.89328109  0.92205588  0.36975500    -0.08100
C2673       C  0.91322357  0.94944385  0.34435777     0.62300
H2674       H  0.87263009  0.90218771  0.32008829     0.13000
H2675       H  0.88656071  0.88268190  0.45895223     0.13000
C2676       C  0.85108336  0.82746323  0.43635811     0.62500
F2677       F  0.93301999  0.92801942  0.32015930    -0.22600
F2678       F  0.93274691  0.97427319  0.36484394    -0.20000
F2679       F  0.89241199  0.97115469  0.32157387    -0.19600
F2680       F  0.87871273  0.80637526  0.44536196    -0.19700
F2681       F  0.82818239  0.80247307  0.42261205    -0.20000
F2682       F  0.83877189  0.84205372  0.47072333    -0.22700
C2683       C  0.88569889  0.62866906  0.43636817    -0.05500
C2684       C  0.89255414  0.59224410  0.42156688     0.00400
C2685       C  0.87237342  0.57748257  0.39227695    -0.08200
C2686       C  0.84954304  0.60206637  0.37483033    -0.05500
C2687       C  0.84784338  0.64165701  0.38302217     0.00400
C2688       C  0.86073369  0.65214680  0.42062814    -0.08100
C2689       C  0.84293598  0.67608490  0.45128610     0.62300
H2690       H  0.89829171  0.63713384  0.46253966     0.13000
H2691       H  0.83330313  0.59039838  0.35383468     0.13000
C2692       C  0.87630051  0.53670139  0.37801672     0.62500
F2693       F  0.81908560  0.65317993  0.46818080    -0.22600
F2694       F  0.82874433  0.70921139  0.43777959    -0.20000
F2695       F  0.86404698  0.68748536  0.48034547    -0.19600
F2696       F  0.87032727  0.51091655  0.40790561    -0.19700
F2697       F  0.91324687  0.04305788  0.35853189    -0.20000
F2698       F  0.85519366  0.52824558  0.34797107    -0.22700
C2699       C  0.62844640  0.84836482  0.36403687    -0.05500
C2700       C  0.66000355  0.86304029  0.35635785     0.00400
C2701       C  0.66635263  0.90141520  0.37182994    -0.08200
C2702       C  0.64268137  0.91888815  0.39651722    -0.05500
C2703       C  0.61162122  0.90336887  0.40335963     0.00400
C2704       C  0.60435954  0.86709078  0.38632144    -0.08100
C2705       C  0.57156028  0.84690155  0.39179956     0.62300
H2706       H  0.62290555  0.82017838  0.35368343     0.13000
H2707       H  0.64759721  0.94658080  0.40955792     0.13000
C2708       C  0.69527136  0.92750401  0.36122958     0.62500
F2709       F  0.57170747  0.80947485  0.37795468    -0.22600
F2710       F  0.54765337  0.86669891  0.37173184    -0.20000
F2711       F  0.56370224  0.84504976  0.43075779    -0.19600
F2712       F  0.69780023  0.93140796  0.32196388    -0.19700
F2713       F  0.72401100  0.91393463  0.37599072    -0.20000
F2714       F  0.69183814  0.96460537  0.37538913    -0.22700
C2715       C  0.90831795  0.88064486  0.11600390    -0.05500
C2716       C  0.89544566  0.90281579  0.08581840     0.00400
C2717       C  0.86152179  0.90086158  0.07884503    -0.08200
C2718       C  0.84210013  0.87825579  0.10385800    -0.05500
C2719       C  0.85485353  0.85497818  0.13450168     0.00400
C2720       C  0.88991939  0.85479389  0.13830980    -0.08100
C2721       C  0.91141929  0.83104085  0.16537158     0.62300
H2722       H  0.93412828  0.88311648  0.12244215     0.13000
H2723       H  0.81622090  0.88027323  0.09951183     0.13000
C2724       C  0.84498245  0.92386572  0.04690678     0.62500
F2725       F  0.93915917  0.81889511  0.14583615    -0.22600
F2726       F  0.89750083  0.79820247  0.17958427    -0.20000
F2727       F  0.92127924  0.85418281  0.19548679    -0.19600
F2728       F  0.86270821  0.92077784  0.51187303    -0.19700
F2729       F  0.84581882  0.96242690  0.05625936    -0.20000
F2730       F  0.81260958  0.91336186  0.04204625    -0.22700
O2731       O  0.94871834  0.92482727  0.92105368    -0.75000
O2732       O  0.91100702  0.95764874  0.95705649    -0.53900
C2733       C  0.91949804  0.93406370  0.93019075     0.78700
O2734       O  0.55770297  0.90922229  0.56373210    -0.59600
O2735       O  0.59808057  0.94621291  0.53798423    -0.52700
C2736       C  0.58802893  0.91698843  0.55777483     0.70700
O2737       O  0.94920924  0.91893886  0.56934714    -0.74200
O2738       O  0.91003600  0.95837024  0.54522590    -0.54700
C2739       C  0.91920081  0.92899812  0.56528251     0.76700
O2740       O  0.55526053  0.91788776  0.91550167    -0.59300
O2741       O  0.59598478  0.94525574  0.95039482    -0.52400
C2742       C  0.58557426  0.92176401  0.92385834     0.73300
Zr2743     Zr  0.50310457  0.94346582  0.93704949     2.54700
O2744       O  0.49655680  0.87529539  0.92282347    -0.79900
O2745       O  0.50238280  0.96130988  0.86872102    -0.93300
Zr2746     Zr  0.50373874  0.93545103  0.55270798     2.64700
O2747       O  0.00332112  0.86883722  0.55609801    -0.98300
O2748       O  0.50630467  0.93614969  0.62313703    -0.80300
O2749       O  0.97216788  0.93919691  0.99772334    -0.83700
O2750       O  0.53550863  0.93763876  0.49539578    -2.18400
O2751       O  0.55989262  0.57245648  0.93166238    -0.67100
O2752       O  0.59908130  0.53478345  0.95846115    -0.51600
C2753       C  0.58986042  0.56273628  0.93664284     0.71700
O2754       O  0.95380298  0.56847789  0.58188898    -0.60000
O2755       O  0.91327941  0.53987616  0.54794239    -0.52000
C2756       C  0.92345065  0.56380899  0.57388505     0.73500
O2757       O  0.56156166  0.56301366  0.57852312    -0.71400
O2758       O  0.59984696  0.53448932  0.54029291    -0.50100
C2759       C  0.59107506  0.55772636  0.56738610     0.74900
O2760       O  0.94851112  0.57970605  0.93325196    -0.66700
O2761       O  0.91010666  0.54345151  0.96503322    -0.53900
C2762       C  0.91880148  0.57033762  0.94131573     0.73300
Zr2763     Zr  0.00346605  0.55848074  0.95107958     2.77500
O2764       O  0.00400847  0.62781880  0.96215050    -0.97500
O2765       O  0.00381097  0.56770932  0.88110766    -0.78300
Zr2766     Zr  0.00659695  0.54498809  0.56079979     2.70100
O2767       O  0.50610463  0.61735684  0.56003549    -0.79500
O2768       O  0.00725760  0.53248595  0.63026765    -0.98600
Zr2769     Zr  0.94162019  0.99772408  0.00164483     2.21500
Zr2770     Zr  0.56908414  0.49240248  0.49760899     2.11100
O2771       O  0.53746336  0.55057377  0.50249500    -2.47300
O2772       O  0.97234715  0.55466951  0.00871000    -0.79300
O2773       O  0.53694587  0.49689169  0.94416335    -0.71500
O2774       O  0.97386650  0.99647203  0.56112364    -2.32500
O2775       O  0.97186475  0.99837650  0.94239451    -2.28700
O2776       O  0.53798561  0.48987616  0.55655675    -0.73300
H2777       H  0.54823375  0.91437693  0.49281694     0.78700
H2778       H  0.96041090  0.99548952  0.58411983     0.79800
H2779       H  0.55151072  0.57299818  0.50356640     0.82000
H2780       H  0.95750705  0.00022336  0.92041565     0.79600
H2781       H  0.01263672  0.91333476  0.63307298     0.42700
H2782       H  0.52068678  0.52251814  0.63726396     0.41700
H2783       H  0.99311488  0.62407930  0.54492478     0.41300
H2784       H  0.50413711  0.63323112  0.92635231     0.39300
H2785       H  0.49919118  0.58127503  0.87114520     0.42400
H2786       H  0.99629289  0.97057179  0.86292550     0.37200
H2787       H  0.00318220  0.86290773  0.96629231     0.43300
H2788       H  0.50962164  0.85712233  0.52892603     0.39700
H2789       H  0.02384035  0.63254194  0.97774553     0.44600
H2790       H  0.52489419  0.97014434  0.86300906     0.43400
H2791       H  0.02222825  0.86085815  0.54013187     0.43500
H2792       H  0.00419245  0.55816553  0.64212730     0.43800
C2793       C  0.68265610  0.65339509  0.83938803    -0.02200
C2794       C  0.68034936  0.83150135  0.82518237    -0.02200
C2795       C  0.67848491  0.82344364  0.65143832    -0.02200
C2796       C  0.68478755  0.64470607  0.66217600    -0.02200
C2797       C  0.83074461  0.66607600  0.84961936    -0.02200
C2798       C  0.83427238  0.65918100  0.67208772    -0.02200
C2799       C  0.82815084  0.83353836  0.65995681    -0.02200
C2800       C  0.82879857  0.84121688  0.83814766    -0.02200
C2801       C  0.83251200  0.88113303  0.76762650    -0.05500
C2802       C  0.83901189  0.84795629  0.79172588     0.00400
C2803       C  0.85871404  0.82185201  0.77089777    -0.08200
C2804       C  0.85033940  0.81521964  0.73162950    -0.05500
C2805       C  0.83803323  0.84458674  0.70542069     0.00400
C2806       C  0.83414632  0.88089578  0.72565628    -0.08100
C2807       C  0.83432932  0.92073674  0.70706721     0.62300
H2808       H  0.82859180  0.90874337  0.78119030     0.13000
H2809       H  0.85648332  0.78671317  0.72226126     0.13000
C2810       C  0.89537459  0.82722323  0.77587567     0.62500
F2811       F  0.80680892  0.94103089  0.71810993    -0.22600
F2812       F  0.83558037  0.92022152  0.66743606    -0.20000
F2813       F  0.86147424  0.94065955  0.71994540    -0.19600
F2814       F  0.91270359  0.79914460  0.75634398    -0.19700
F2815       F  0.90446213  0.82636029  0.81416125    -0.20000
F2816       F  0.90453893  0.86274108  0.76084629    -0.22700
C2817       C  0.81122239  0.72588125  0.68000612    -0.05500
C2818       C  0.83374606  0.70424723  0.65916353     0.00400
C2819       C  0.85013666  0.72616011  0.62867736    -0.08200
C2820       C  0.85038237  0.76747827  0.63086011    -0.05500
C2821       C  0.83043743  0.78843775  0.65698692     0.00400
C2822       C  0.80965131  0.76619073  0.68033149    -0.08100
C2823       C  0.78257445  0.78284396  0.70388741     0.62300
H2824       H  0.79699247  0.70983598  0.70062929     0.13000
H2825       H  0.86546945  0.78354236  0.61076040     0.13000
C2826       C  0.86222485  0.70950517  0.59035835     0.62500
F2827       F  0.75619808  0.78066163  0.68152375    -0.22600
F2828       F  0.78353965  0.81911040  0.71834250    -0.20000
F2829       F  0.77928823  0.76118744  0.73501513    -0.19600
F2830       F  0.83993132  0.68357736  0.57587942    -0.19700
F2831       F  0.89234423  0.69254349  0.59417281    -0.20000
F2832       F  0.86555386  0.73793456  0.56222004    -0.22700
C2833       C  0.84738833  0.69148835  0.74125937    -0.05500
C2834       C  0.84504362  0.65653563  0.71900310     0.00400
C2835       C  0.85610663  0.62386662  0.74333386    -0.08200
C2836       C  0.85626672  0.62741369  0.78553367    -0.05500
C2837       C  0.84719056  0.66175508  0.80547590     0.00400
C2838       C  0.85649359  0.69316089  0.78084691    -0.08100
C2839       C  0.89152066  0.70876580  0.78404270     0.62300
H2840       H  0.85220367  0.71830600  0.72674448     0.13000
H2841       H  0.86434577  0.60290420  0.80197554     0.13000
C2842       C  0.87255029  0.58670120  0.72976881     0.62500
F2843       F  0.90757212  0.71132301  0.74895229    -0.22600
F2844       F  0.91070762  0.68504292  0.80646229    -0.20000
F2845       F  0.89129563  0.74537373  0.79817390    -0.19600
F2846       F  0.86808960  0.57852445  0.69147131    -0.19700
F2847       F  0.86117045  0.55526866  0.75080937    -0.20000
F2848       F  0.90563581  0.58919113  0.73687910    -0.22700
C2849       C  0.86319320  0.77723896  0.86065687    -0.05500
C2850       C  0.83436467  0.79623880  0.84724708     0.00400
C2851       C  0.80798261  0.77171008  0.84650624    -0.08200
C2852       C  0.80806090  0.73567106  0.86510883    -0.05500
C2853       C  0.83529716  0.71184559  0.86077643     0.00400
C2854       C  0.86490119  0.73531733  0.86559683    -0.08100
C2855       C  0.89726159  0.72079862  0.88176867     0.62300
H2856       H  0.88428016  0.79447731  0.86760215     0.13000
H2857       H  0.78497774  0.72507518  0.87404117     0.13000
C2858       C  0.78781999  0.77180461  0.81255884     0.62500
F2859       F  0.92309551  0.74139945  0.86593494    -0.22600
F2860       F  0.90314856  0.68253472  0.87463687    -0.20000
F2861       F  0.89764642  0.72660948  0.92130272    -0.19600
F2862       F  0.79103602  0.80226670  0.78795929    -0.19700
F2863       F  0.75682673  0.77240450  0.82618345    -0.20000
F2864       F  0.79725860  0.73875413  0.79302400    -0.22700
C2865       C  0.74345069  0.61449216  0.68237996    -0.05500
C2866       C  0.72405025  0.63720333  0.65661277     0.00400
C2867       C  0.74377679  0.65732750  0.62833514    -0.08200
C2868       C  0.77755220  0.66389435  0.63528397    -0.05500
C2869       C  0.79631817  0.64494759  0.66456804     0.00400
C2870       C  0.77844570  0.61319771  0.68142188    -0.08100
C2871       C  0.79290554  0.57312773  0.68663498     0.62300
H2872       H  0.73183823  0.59512201  0.70224877     0.13000
H2873       H  0.78983545  0.68288272  0.61510627     0.13000
C2874       C  0.73203421  0.67007851  0.58859456     0.62500
F2875       F  0.80775088  0.56980252  0.72158395    -0.22600
F2876       F  0.81465892  0.56464342  0.65754824    -0.20000
F2877       F  0.76917331  0.54466706  0.68535223    -0.19600
F2878       F  0.72997406  0.70984341  0.58704405    -0.19700
F2879       F  0.70253003  0.65388825  0.57872680    -0.20000
F2880       F  0.75428198  0.65835008  0.56079405    -0.22700
C2881       C  0.66609934  0.70942967  0.61960651    -0.05500
C2882       C  0.68142108  0.69065577  0.65220571     0.00400
C2883       C  0.69722018  0.71702833  0.67572749    -0.08200
C2884       C  0.69599303  0.75706166  0.67066083    -0.05500
C2885       C  0.67823913  0.77682422  0.64359575     0.00400
C2886       C  0.66512258  0.75128109  0.61390013    -0.08100
C2887       C  0.65294770  0.76552676  0.57472938     0.62300
H2888       H  0.65571283  0.69168506  0.59733619     0.13000
H2889       H  0.70598005  0.77449082  0.69336779     0.13000
C2890       C  0.71425611  0.70725960  0.71077654     0.62500
F2891       F  0.65205432  0.73608416  0.54780737    -0.22600
F2892       F  0.67366418  0.79328466  0.55983081    -0.20000
F2893       F  0.62169598  0.77982326  0.57771970    -0.19600
F2894       F  0.74467707  0.71920705  0.70538356    -0.19700
F2895       F  0.71889325  0.67050592  0.72092948    -0.20000
F2896       F  0.69702388  0.72632549  0.73894546    -0.22700
C2897       C  0.73731624  0.81577738  0.61831957    -0.05500
C2898       C  0.71695975  0.83719360  0.64394291     0.00400
C2899       C  0.73466346  0.87031505  0.65845070    -0.08200
C2900       C  0.76956058  0.86896918  0.66326541    -0.05500
C2901       C  0.79000857  0.84132940  0.64571523     0.03600
C2902       C  0.77236889  0.81932363  0.61645870    -0.08100
C2903       C  0.78779919  0.79850220  0.58238913     0.62300
H2904       H  0.72594687  0.79508190  0.59933334     0.13000
H2905       H  0.78113478  0.89251171  0.67759858     0.13000
C2906       C  0.72270712  0.91134255  0.65452225     0.62500
F2907       F  0.78636408  0.75910313  0.58856864    -0.22600
F2908       F  0.81951213  0.80932940  0.57524904    -0.20000
F2909       F  0.77050213  0.80706262  0.54904249    -0.19600
F2910       F  0.69094850  0.91364238  0.64352081    -0.19700
F2911       F  0.74069243  0.92982510  0.62583755    -0.20000
F2912       F  0.72715523  0.93112908  0.68864987    -0.22700
C2913       C  0.66335689  0.86846060  0.75961962    -0.05500
C2914       C  0.66593884  0.83431331  0.78147502     0.00400
C2915       C  0.65038659  0.80384009  0.76107883    -0.08200
C2916       C  0.65613364  0.80080693  0.72089342    -0.05500
C2917       C  0.66657490  0.83219226  0.69671048     0.00400
C2918       C  0.66154842  0.86851219  0.71772222    -0.08100
C2919       C  0.64517970  0.90514413  0.70283055     0.62300
H2920       H  0.66111581  0.89519259  0.77515349     0.13000
H2921       H  0.64823152  0.77421215  0.70833105     0.13000
C2922       C  0.61755644  0.78822688  0.77484416     0.62500
F2923       F  0.61669818  0.91095991  0.72373124    -0.22600
F2924       F  0.63612455  0.90435424  0.66479100    -0.20000
F2925       F  0.66518784  0.93665118  0.70896160    -0.19600
F2926       F  0.59790233  0.81851625  0.78619264    -0.19700
F2927       F  0.62117209  0.76247582  0.80482319    -0.20000
F2928       F  0.60077522  0.76975394  0.74562108    -0.22700
C2929       C  0.73385057  0.83251885  0.86549426    -0.05500
C2930       C  0.71884101  0.84262699  0.82959282     0.00400
C2931       C  0.74116818  0.86286356  0.80365665    -0.08200
C2932       C  0.77298559  0.87282534  0.81651956    -0.05500
C2933       C  0.79002444  0.85349053  0.84573896     0.00400
C2934       C  0.76719117  0.84078945  0.87537298    -0.08100
C2935       C  0.76985406  0.85351237  0.91737911     0.62300
H2936       H  0.71870135  0.82053958  0.88806782     0.13000
H2937       H  0.78382237  0.89784548  0.80402691     0.13000
C2938       C  0.73572765  0.87405170  0.76181125     0.62500
F2939       F  0.74230394  0.87378779  0.92857511    -0.22600
F2940       F  0.79557789  0.87841484  0.92263656    -0.20000
F2941       F  0.77167888  0.82188720  0.94177756    -0.19600
F2942       F  0.71670266  0.90643378  0.75892963    -0.19700
F2943       F  0.72381818  0.84298323  0.74161515    -0.20000
F2944       F  0.76447245  0.88423602  0.74372346    -0.22700
C2945       C  0.67690086  0.60415905  0.73026103    -0.05500
C2946       C  0.66926688  0.63659396  0.70634060     0.00400
C2947       C  0.65164642  0.66454532  0.72863441    -0.08200
C2948       C  0.65926630  0.66982545  0.76859664    -0.05500
C2949       C  0.67368411  0.64147253  0.79343471     0.00400
C2950       C  0.67653339  0.60488829  0.77258930    -0.08100
C2951       C  0.67603138  0.56510201  0.79131965     0.62300
H2952       H  0.68218400  0.57725266  0.71592592     0.13000
H2953       H  0.65141952  0.69685001  0.78018490     0.13000
C2954       C  0.61915790  0.68101013  0.71526406     0.62500
F2955       F  0.64796753  0.54603752  0.78000998    -0.22600
F2956       F  0.67627050  0.56590361  0.83099515    -0.20000
F2957       F  0.70268473  0.54392965  0.77902392    -0.19600
F2958       F  0.59958495  0.65155635  0.70164450    -0.19700
F2959       F  0.62327035  0.70901853  0.68733882    -0.20000
F2960       F  0.60205594  0.69740497  0.74551188    -0.22700
C2961       C  0.73921021  0.61827597  0.83237457    -0.05500
C2962       C  0.71981835  0.64287063  0.85401268     0.00400
C2963       C  0.73804397  0.65830005  0.88647917    -0.08200
C2964       C  0.77333663  0.65814354  0.88555711    -0.05500
C2965       C  0.79224463  0.65006869  0.85166650     0.00400
C2966       C  0.77316312  0.62531674  0.82556247    -0.08100
C2967       C  0.78432189  0.60804748  0.78799213     0.62300
H2968       H  0.72643981  0.59835267  0.81510574     0.13000
H2969       H  0.78563679  0.67006175  0.91002356     0.13000
C2970       C  0.72350109  0.67592968  0.92274507     0.62500
F2971       F  0.76016428  0.58850867  0.76803559    -0.22600
F2972       F  0.80805524  0.58096614  0.79480366    -0.20000
F2973       F  0.79339563  0.63779062  0.76397240    -0.19600
F2974       F  0.73541508  0.65643369  0.95480750    -0.19700
F2975       F  0.69012888  0.67411102  0.92464404    -0.20000
F2976       F  0.73287663  0.71419776  0.92503330    -0.22700
C2977       C  0.69572395  0.76211416  0.81120712    -0.05500
C2978       C  0.67921774  0.78584566  0.83731603     0.00400
C2979       C  0.66583984  0.76445863  0.87039052    -0.08200
C2980       C  0.66355592  0.72269473  0.86893301    -0.05500
C2981       C  0.68172611  0.69992700  0.84227377     0.00400
C2982       C  0.70112637  0.72216284  0.81684864    -0.08100
C2983       C  0.73175077  0.70616319  0.80021484     0.62300
H2984       H  0.70817724  0.77666981  0.78759263     0.13000
H2985       H  0.64912892  0.70802395  0.89080383     0.13000
C2986       C  0.65692005  0.78096335  0.90981542     0.62500
F2987       F  0.74414082  0.72980144  0.77359225    -0.22600
F2988       F  0.72968783  0.67132189  0.78366699    -0.20000
F2989       F  0.75353919  0.70399509  0.82849260    -0.19600
F2990       F  0.62357521  0.77832890  0.91544317    -0.19700
F2991       F  0.66683177  0.81843195  0.91536937    -0.20000
F2992       F  0.67206142  0.75934843  0.93840281    -0.22700
C2993       C  0.60232135  0.61050958  0.88593259    -0.05500
C2994       C  0.61447601  0.58581578  0.91459583     0.00400
C2995       C  0.64851835  0.58422605  0.92035250    -0.08200
C2996       C  0.66865327  0.60675214  0.89617323    -0.05500
C2997       C  0.65694933  0.63246227  0.86671721     0.00400
C2998       C  0.62191270  0.63436872  0.86262131    -0.08100
C2999       C  0.60288522  0.65684419  0.83209102     0.62300
H3000       H  0.57637302  0.60996465  0.88051077     0.13000
H3001       H  0.69430275  0.60236870  0.90010234     0.13000
C3002       C  0.66418982  0.55861600  0.95119260     0.62500
F3003       F  0.57023650  0.66112577  0.84185828    -0.22600
F3004       F  0.60384938  0.63719909  0.79747043    -0.20000
F3005       F  0.61430867  0.69357665  0.82800969    -0.19600
F3006       F  0.65947701  0.52637645  0.44540477    -0.19700
F3007       F  0.65152236  0.56742939  0.98725840    -0.20000
F3008       F  0.69769291  0.56355460  0.95318193    -0.22700
C3009       C  0.66583071  0.86506437  0.59144129    -0.05500
C3010       C  0.65377859  0.84276605  0.62304472     0.00400
C3011       C  0.61871273  0.84019214  0.62699814    -0.08200
C3012       C  0.59933537  0.86511386  0.60484002    -0.05500
C3013       C  0.61193703  0.89031689  0.57664993     0.00400
C3014       C  0.64571628  0.88847870  0.56801006    -0.08100
C3015       C  0.66092217  0.91098483  0.53458842     0.62300
H3016       H  0.69161481  0.86504596  0.58521753     0.13000
H3017       H  0.57347316  0.86603796  0.61107873     0.13000
C3018       C  0.59965366  0.81436846  0.65518980     0.62500
F3019       F  0.69286322  0.89997007  0.52761694    -0.22600
F3020       F  0.66100743  0.94994232  0.54300388    -0.20000
F3021       F  0.64819166  0.90587861  0.00470507    -0.19600
F3022       F  0.59854925  0.83097819  0.69135916    -0.19700
F3023       F  0.61246534  0.77796130  0.65716086    -0.20000
F3024       F  0.56759853  0.80929055  0.64346476    -0.22700
C3025       C  0.84656876  0.61565786  0.61295220    -0.05500
C3026       C  0.85885374  0.63724121  0.64469591     0.00400
C3027       C  0.89375636  0.63741366  0.64871013    -0.08200
C3028       C  0.91253409  0.61069650  0.62743978    -0.05500
C3029       C  0.89978492  0.58843993  0.59683258     0.00400
C3030       C  0.86625499  0.59336496  0.58793855    -0.08100
C3031       C  0.85095428  0.57653436  0.55169538     0.62300
H3032       H  0.82099246  0.61696027  0.60630106     0.13000
H3033       H  0.93841141  0.60922809  0.63364997     0.13000
C3034       C  0.91355971  0.66673629  0.67140731     0.62500
F3035       F  0.81917971  0.58893665  0.54619377    -0.22600
F3036       F  0.85032482  0.53688808  0.55448414    -0.20000
F3037       F  0.86520976  0.58213268  0.02498078    -0.19600
F3038       F  0.92541375  0.65030487  0.70492420    -0.19700
F3039       F  0.89616579  0.69914995  0.68026921    -0.20000
F3040       F  0.93997887  0.67911707  0.64945385    -0.22700
C3041       C  0.63188305  0.63297786  0.62882298    -0.05500
C3042       C  0.66377483  0.61927926  0.63411906     0.00400
C3043       C  0.67187099  0.58340701  0.61474584    -0.08200
C3044       C  0.64746969  0.56508541  0.59234622    -0.05500
C3045       C  0.61626794  0.58048996  0.58772234     0.00400
C3046       C  0.60919930  0.61664301  0.60413459    -0.08100
C3047       C  0.57834658  0.63943795  0.59536232     0.62300
H3048       H  0.62478927  0.65896112  0.64265592     0.13000
H3049       H  0.65211453  0.53756358  0.57882130     0.13000
C3050       C  0.70402800  0.56150676  0.61799859     0.62500
F3051       F  0.57107710  0.63715651  0.55633925    -0.22600
F3052       F  0.58193708  0.67821676  0.60394111    -0.20000
F3053       F  0.55274926  0.62526068  0.61740678    -0.19600
F3054       F  0.70960710  0.55204788  0.65607829    -0.19700
F3055       F  0.72953750  0.58258453  0.60254635    -0.20000
F3056       F  0.70371382  0.52696703  0.59799545    -0.22700
C3057       C  0.87047000  0.89492130  0.84805674    -0.05500
C3058       C  0.85152658  0.86530926  0.86565985     0.00400
C3059       C  0.85725665  0.85923682  0.90696554    -0.08200
C3060       C  0.87747044  0.88536026  0.92666960    -0.05500
C3061       C  0.89429040  0.91481864  0.90799234     0.00400
C3062       C  0.89212114  0.91858807  0.86764411    -0.08100
C3063       C  0.91305711  0.94526476  0.84261976     0.62300
H3064       H  0.87095270  0.89958627  0.81763260     0.13000
H3065       H  0.88260725  0.88067517  0.95714046     0.13000
C3066       C  0.84698754  0.82586362  0.93384295     0.62500
F3067       F  0.93283566  0.92318989  0.81900997    -0.22600
F3068       F  0.93268149  0.96966366  0.86350671    -0.20000
F3069       F  0.89312316  0.96754536  0.81929988    -0.19600
F3070       F  0.87438489  0.80448609  0.94310492    -0.19700
F3071       F  0.82412842  0.80118712  0.91949685    -0.20000
F3072       F  0.83441577  0.84030183  0.96815222    -0.22700
C3073       C  0.88372759  0.62784545  0.93730687    -0.05500
C3074       C  0.89276262  0.59243346  0.92191497     0.00400
C3075       C  0.87498907  0.57756443  0.89063966    -0.08200
C3076       C  0.85132051  0.60091805  0.87305726    -0.05500
C3077       C  0.84778905  0.64026330  0.88173689     0.00400
C3078       C  0.85924475  0.65101835  0.92013064    -0.08100
C3079       C  0.84138449  0.67629843  0.94975521     0.62300
H3080       H  0.89474497  0.63598592  0.96456858     0.13000
H3081       H  0.83602022  0.58859410  0.85138017     0.13000
C3082       C  0.88268179  0.53832771  0.87421144     0.62500
F3083       F  0.81738050  0.65423450  0.96745196    -0.22600
F3084       F  0.82740140  0.70903612  0.93508672    -0.20000
F3085       F  0.86243906  0.68863298  0.97852480    -0.19600
F3086       F  0.87891488  0.51027369  0.90248269    -0.19700
F3087       F  0.91411363  0.03985246  0.85716044    -0.20000
F3088       F  0.86257922  0.52903964  0.84347910    -0.22700
C3089       C  0.62581736  0.84430641  0.85863430    -0.05500
C3090       C  0.65762243  0.85855667  0.85154386     0.00400
C3091       C  0.66439590  0.89632446  0.86849445    -0.08200
C3092       C  0.64115572  0.91295008  0.89434957    -0.05500
C3093       C  0.60975188  0.89818247  0.90025122     0.00400
C3094       C  0.60191481  0.86284994  0.88153307    -0.08100
C3095       C  0.56879984  0.84327214  0.88618156     0.62300
H3096       H  0.62005719  0.81644468  0.84754802     0.13000
H3097       H  0.64646645  0.93988699  0.90866259     0.13000
C3098       C  0.69258173  0.92349577  0.85752307     0.62500
F3099       F  0.56825923  0.80654327  0.87060085    -0.22600
F3100       F  0.54522926  0.86454176  0.86711233    -0.20000
F3101       F  0.56102120  0.83985580  0.92507216    -0.19600
F3102       F  0.69209811  0.93087162  0.81853720    -0.19700
F3103       F  0.72235884  0.90932589  0.86818398    -0.20000
F3104       F  0.69023753  0.95915903  0.87526501    -0.22700
C3105       C  0.90719461  0.88078692  0.61594352    -0.05500
C3106       C  0.89480541  0.90462686  0.58666776     0.00400
C3107       C  0.86108882  0.90239369  0.57840193    -0.08200
C3108       C  0.84114992  0.87865331  0.60191025    -0.05500
C3109       C  0.85330214  0.85436264  0.63213324     0.00400
C3110       C  0.88835026  0.85386901  0.63658789    -0.08100
C3111       C  0.90991414  0.82675357  0.66033259     0.62300
H3112       H  0.93308419  0.88206483  0.62235773     0.13000
H3113       H  0.81534429  0.88050020  0.59674132     0.13000
C3114       C  0.84546149  0.92550293  0.54589444     0.62500
F3115       F  0.93334898  0.81091059  0.63617372    -0.22600
F3116       F  0.89458923  0.79634777  0.67747228    -0.20000
F3117       F  0.92574878  0.84763257  0.68863183    -0.19600
F3118       F  0.86060630  0.91820045  0.01195163    -0.19700
F3119       F  0.84507200  0.96400198  0.55571719    -0.20000
F3120       F  0.81363173  0.91401955  0.53889381    -0.22700
loop_ 
_geom_bond_atom_site_label_1 
_geom_bond_atom_site_label_2 
_geom_bond_distance 
_geom_bond_site_symmetry_2 
_ccdc_geom_bond_type 
O1            C3   1.276       .  A
O1        Zr1573   2.372       .  S
O2            C3   1.288       .  A
O2          Zr39   2.427       .  S
C3          C331   1.441       .  S
O4            C6   1.287       .  A
O4          Zr16   2.426       .  S
O5            C6   1.285       .  A
O5         Zr820   2.429       .  S
C6          C283   1.500       .  S
O7            C9   1.287       .  A
O7        Zr1576   2.427       .  S
O8            C9   1.282       .  A
O8         Zr429   2.414       .  S
C9          C376   1.493       .  S
O10          C12   1.281       .  A
O10         Zr13   2.426       .  S
O11          C12   1.299       .  A
O11       Zr1210   2.488       .  S
C12         C363   1.516       .  S
Zr13       O1561   2.383   1_455  S
Zr13         O14   2.438       .  S
Zr13         O15   2.436       .  S
Zr13       O1579   2.370   1_455  S
Zr13        O410   2.346       .  S
Zr13        O823   2.359       .  S
Zr13       O1605   2.383   1_455  S
O14        H1617   0.990   1_455  S
O15          H60   0.990   1_455  S
O15        H1616   0.989   1_455  S
Zr16       O1567   2.423   1_455  S
Zr16         O18   2.434       .  S
Zr16       O1577   2.439       .  S
Zr16         O20   2.358   1_554  S
Zr16       O1969   2.352   1_454  S
Zr16       O1604   2.368   1_455  S
Zr16        O826   2.366       .  S
O17       Zr1576   2.437       .  S
O17          H61   0.990       .  S
O17        H1618   0.990       .  S
O18        H1611   0.990   1_455  S
O19         Zr39   2.385       .  S
O19       Zr1573   2.372       .  S
O19       Zr1966   2.352       .  S
O20        Zr403   2.350       .  S
O20        Zr820   2.377   1_556  S
O20          H47   0.965       .  S
O21          C23   1.284       .  A
O21       Zr1593   2.406       .  S
O22          C23   1.277       .  A
O22        Zr430   2.389   1_545  S
C23         C264   1.480       .  S
O24          C26   1.288       .  A
O24         Zr36   2.433       .  S
O25          C26   1.292       .  A
O25       Zr1209   2.462   1_545  S
C26         C299   1.516       .  S
O27          C29   1.284       .  A
O27       Zr1596   2.413       .  S
O28          C29   1.291       .  A
O28         Zr40   2.443   1_544  S
C29         C315   1.482       .  S
O30          C32   1.292       .  A
O30         Zr33   2.463       .  S
O31          C32   1.285       .  A
O31        Zr819   2.419   1_545  S
C32         C344   1.477       .  S
Zr33       O1581   2.420       .  S
Zr33         O34   2.438       .  S
Zr33         O35   2.435       .  S
Zr33         O42   2.366       .  S
Zr33       O1991   2.365       .  S
Zr33        O825   2.354       .  S
Zr33       O1603   2.381       .  S
O34          H59   0.990       .  S
O34        H1614   0.990       .  S
O35        H1615   0.990       .  S
Zr36       O1587   2.407       .  S
Zr36         O38   2.436       .  S
Zr36       O1597   2.432       .  S
Zr36        O432   2.359       .  S
Zr36       O1601   2.369       .  S
Zr36       O1606   2.374   1_545  S
Zr36        O824   2.353   1_545  S
O37       Zr1596   2.434       .  S
O37        H1613   0.990   1_455  S
O38          H62   0.990       .  S
O38        H1612   0.991       .  S
Zr39        O398   2.413       .  S
Zr39       O1195   2.459       .  S
Zr39        O811   2.418       .  S
Zr39         O45   2.385       .  S
Zr39        O822   2.372       .  S
Zr39        O434   2.382       .  S
Zr40        O785   2.431   1_556  S
Zr40       O1181   2.484       .  S
Zr40        O412   2.392   1_565  S
Zr40         O41   2.409   1_565  S
Zr40         O46   2.391   1_556  S
Zr40        O800   2.377       .  S
Zr40        O433   2.391       .  S
O41       Zr1983   2.370       .  S
O41       Zr1596   2.362   1_556  S
O41          H49   0.965   1_556  S
O42        Zr426   2.365       .  S
O42        Zr819   2.376   1_545  S
O43        Zr793   2.354   1_545  S
O43       Zr1593   2.380       .  S
O43        Zr430   2.387   1_545  S
O44       Zr1576   2.360       .  S
O44        Zr816   2.359       .  S
O44        Zr429   2.387       .  S
O44          H48   0.966       .  S
O45       Zr1573   2.373       .  S
O45        Zr813   2.348       .  S
O45          H50   0.964       .  S
O46        Zr796   2.359       .  S
O46       Zr1596   2.377   1_565  S
H51        O1578   0.990       .  S
H52        O1598   0.991       .  S
H53        O1597   0.990       .  S
H54        O1594   0.990   1_655  S
H55        O1595   0.990   1_655  S
H56        O1575   0.990       .  S
H57        O1574   0.990       .  S
H58        O1577   0.990   1_655  S
C63         C219   1.681       .  S
C63         C232   1.642       .  S
C63         C251   1.614       .  S
C63         C267   1.573       .  S
C64         C184   1.631       .  S
C64         C200   1.635       .  S
C64         C248   1.631       .  S
C64         C360   1.602       .  S
C65         C155   1.640       .  S
C65         C168   1.659       .  S
C65         C187   1.666       .  S
C65         C280   1.561       .  S
C66         C136   1.640       .  S
C66         C152   1.636       .  S
C66         C216   1.667       .  S
C66         C312   1.576       .  S
C67         C107   1.671       .  S
C67         C123   1.641       .  S
C67         C235   1.670       .  S
C67         C347   1.581       .  S
C68          C88   1.624       .  S
C68         C104   1.678       .  S
C68         C139   1.654       .  S
C68         C296   1.578       .  S
C69          C75   1.668       .  S
C69          C91   1.575       .  S
C69         C171   1.657       .  S
C69         C379   1.568       .  S
C70          C72   1.667       .  S
C70         C120   1.596       .  S
C70         C203   1.669       .  S
C70         C328   1.571       .  S
C71          C72   1.439       .  A
C71          C76   1.449       .  A
C71          H78   1.080       .  S
C72          C73   1.412       .  A
C73          C80   1.523       .  S
C73          C74   1.419       .  A
C74          C75   1.449       .  A
C74          H79   1.072       .  S
C75          C76   1.455       .  A
C76          C77   1.519       .  S
C77          F81   1.384       .  S
C77          F82   1.368       .  S
C77          F83   1.384       .  S
C80          F84   1.382       .  S
C80          F85   1.375       .  S
C80          F86   1.385       .  S
C87          C88   1.389       .  A
C87          C92   1.400       .  A
C87          H94   1.070       .  S
C88          C89   1.453       .  A
C89          C96   1.525       .  S
C89          C90   1.438       .  A
C90          C91   1.424       .  A
C90          H95   1.079       .  S
C91          C92   1.393       .  A
C92          C93   1.485       .  S
C93          F97   1.334       .  S
C93          F98   1.354       .  S
C93          F99   1.311       .  S
C96         F100   1.376       .  S
C96         F101   1.375       .  S
C96         F102   1.386       .  S
C103        C104   1.441       .  A
C103        C108   1.416       .  A
C103        H110   1.070       .  S
C104        C105   1.480       .  A
C105        C112   1.535       .  S
C105        C106   1.463       .  A
C106        C107   1.428       .  A
C106        H111   1.073       .  S
C107        C108   1.429       .  A
C108        C109   1.542       .  S
C109        F113   1.377       .  S
C109        F114   1.376       .  S
C109        F115   1.362       .  S
C112        F116   1.369       .  S
C112        F117   1.386       .  S
C112        F118   1.380       .  S
C119        C120   1.429       .  A
C119        C124   1.461       .  A
C119        H126   1.077       .  S
C120        C121   1.369       .  A
C121        C128   1.439       .  S
C121        C122   1.399       .  A
C122        C123   1.400       .  A
C122        H127   1.057       .  S
C123        C124   1.466       .  A
C124        C125   1.526       .  S
C125        F129   1.385       .  S
C125        F130   1.372       .  S
C125        F131   1.381       .  S
C128        F132   1.358       .  S
C128        F133   1.354       .  S
C128        F134   1.388       .  S
C135        C136   1.428       .  A
C135        C140   1.433       .  A
C135        H142   1.067       .  S
C136        C137   1.442       .  A
C137        C144   1.519       .  S
C137        C138   1.426       .  A
C138        C139   1.430       .  A
C138        H143   1.079       .  S
C139        C140   1.439       .  A
C140        C141   1.520       .  S
C141        F145   1.355       .  S
C141        F146   1.376       .  S
C141        F147   1.385       .  S
C144        F148   1.382       .  S
C144        F149   1.374       .  S
C144        F150   1.384       .  S
C151        C152   1.442       .  A
C151        C156   1.464       .  A
C151        H158   1.074       .  S
C152        C153   1.391       .  A
C153        C160   1.441       .  S
C153        C154   1.401       .  A
C154        C155   1.367       .  A
C154        H159   1.076       .  S
C155        C156   1.461       .  A
C156        C157   1.524       .  S
C157        F161   1.385       .  S
C157        F162   1.379       .  S
C157        F163   1.377       .  S
C160        F164   1.322       .  S
C160        F165   1.333       .  S
C160        F166   1.373       .  S
C167        C168   1.425       .  A
C167        C172   1.436       .  A
C167        H174   1.078       .  S
C168        C169   1.450       .  A
C169        C176   1.515       .  S
C169        C170   1.439       .  A
C170        C171   1.412       .  A
C170        H175   1.067       .  S
C171        C172   1.458       .  A
C172        C173   1.520       .  S
C173        F177   1.382       .  S
C173        F178   1.373       .  S
C173        F179   1.385       .  S
C176        F180   1.361       .  S
C176        F181   1.386       .  S
C176        F182   1.376       .  S
C183        C184   1.406       .  A
C183        C188   1.450       .  A
C183        H190   1.079       .  S
C184        C185   1.428       .  A
C185        C192   1.523       .  S
C185        C186   1.413       .  A
C186        C187   1.430       .  A
C186        H191   1.071       .  S
C187        C188   1.469       .  A
C188        C189   1.523       .  S
C189        F193   1.385       .  S
C189        F194   1.364       .  S
C189        F195   1.381       .  S
C192        F196   1.382       .  S
C192        F197   1.370       .  S
C192        F198   1.382       .  S
C199        C200   1.431       .  A
C199        C204   1.445       .  A
C199        H206   1.078       .  S
C200        C201   1.451       .  A
C201        C208   1.509       .  S
C201        C202   1.420       .  A
C202        C203   1.396       .  A
C202        H207   1.062       .  S
C203        C204   1.454       .  A
C204        C205   1.523       .  S
C205        F209   1.386       .  S
C205        F210   1.373       .  S
C205        F211   1.381       .  S
C208        F212   1.369       .  S
C208        F213   1.376       .  S
C208        F214   1.374       .  S
C215        C216   1.424       .  A
C215        C220   1.459       .  A
C215        H222   1.077       .  S
C216        C217   1.432       .  A
C217        C224   1.517       .  S
C217        C218   1.431       .  A
C218        C219   1.431       .  A
C218        H223   1.071       .  S
C219        C220   1.468       .  A
C220        C221   1.520       .  S
C221        F225   1.384       .  S
C221        F226   1.368       .  S
C221        F227   1.384       .  S
C224        F228   1.382       .  S
C224        F229   1.373       .  S
C224        F230   1.382       .  S
C231        C232   1.385       .  A
C231        C236   1.429       .  A
C231        H238   1.056       .  S
C232        C233   1.451       .  A
C233        C240   1.519       .  S
C233        C234   1.445       .  A
C234        C235   1.430       .  A
C234        H239   1.069       .  S
C235        C236   1.472       .  A
C236        C237   1.501       .  S
C237        F241   1.386       .  S
C237        F242   1.372       .  S
C237        F243   1.369       .  S
C240        F244   1.384       .  S
C240        F245   1.371       .  S
C240        F246   1.383       .  S
C247        C248   1.395       .  A
C247        C252   1.411       .  A
C247        H254   1.082       .  S
C248        C249   1.462       .  A
C249        C256   1.523       .  S
C249        C250   1.452       .  A
C250        C251   1.427       .  A
C250        H255   1.081       .  S
C251        C252   1.404       .  A
C252        C253   1.485       .  S
C253        F257   1.328       .  S
C253        F258   1.341       .  S
C253        F259   1.326       .  S
C256        F260   1.382       .  S
C256        F261   1.375       .  S
C256        F262   1.384       .  S
C263        C264   1.396       .  A
C263        C268   1.393       .  A
C263        H270   1.079       .  S
C264        C265   1.409       .  A
C265        C272   1.528       .  S
C265        C266   1.399       .  A
C266        C267   1.432       .  A
C266        H271   1.070       .  S
C267        C268   1.442       .  A
C268        C269   1.525       .  S
C269        F273   1.386       .  S
C269        F274   1.379       .  S
C269        F275   1.362       .  S
C272        F277   1.383       .  S
C272        F278   1.385       .  S
C272        F666   1.384       .  S
F276        C662   1.383       .  S
C279        C280   1.420       .  A
C279        C284   1.413       .  A
C279        H286   1.077       .  S
C280        C281   1.443       .  A
C281        C288   1.527       .  S
C281        C282   1.400       .  A
C282        C283   1.402       .  A
C282        H287   1.082       .  S
C283        C284   1.419       .  A
C284        C285   1.521       .  S
C285        F289   1.385       .  S
C285        F290   1.383       .  S
C285        F681   1.383       .  S
C288        F292   1.379       .  S
C288        F293   1.368       .  S
C288        F294   1.387       .  S
F291        C675   1.384       .  S
C295        C296   1.422       .  A
C295        C300   1.414       .  A
C295        H302   1.074       .  S
C296        C297   1.438       .  A
C297        C304   1.520       .  S
C297        C298   1.410       .  A
C298        C299   1.409       .  A
C298        H303   1.083       .  S
C299        C300   1.421       .  A
C300        C301   1.521       .  S
C301        F305   1.385       .  S
C301        F306   1.379       .  S
C301        F697   1.383       .  S
C304        F308   1.377       .  S
C304        F309   1.367       .  S
C304        F310   1.386       .  S
F307        C691   1.383       .  S
C311        C312   1.408       .  A
C311        C316   1.391       .  A
C311        H318   1.071       .  S
C312        C313   1.459       .  A
C313        C320   1.529       .  S
C313        C314   1.419       .  A
C314        C315   1.393       .  A
C314        H319   1.081       .  S
C315        C316   1.407       .  A
C316        C317   1.520       .  S
C317        F321   1.383       .  S
C317        F322   1.385       .  S
C317        F323   1.382       .  S
C320        F324   1.372       .  S
C320        F325   1.378       .  S
C320        F326   1.386       .  S
C327        C328   1.419       .  A
C327        C332   1.385       .  A
C327        H334   1.061       .  S
C328        C329   1.462       .  A
C329        C336   1.538       .  S
C329        C330   1.403       .  A
C330        C331   1.383       .  A
C330        H335   1.086       .  S
C331        C332   1.400       .  A
C332        C333   1.526       .  S
C333        F337   1.384       .  S
C333        F338   1.376       .  S
C333        F339   1.382       .  S
C336        F340   1.384       .  S
C336        F341   1.362       .  S
C336        F342   1.387       .  S
C343        C344   1.394       .  A
C343        C348   1.416       .  A
C343        H350   1.083       .  S
C344        C345   1.409       .  A
C345        C352   1.510       .  S
C345        C346   1.400       .  A
C346        C347   1.401       .  A
C346        H351   1.067       .  S
C347        C348   1.453       .  A
C348        C349   1.536       .  S
C349        F353   1.383       .  S
C349        F354   1.369       .  S
C349        F355   1.386       .  S
C352        F356   1.381       .  S
C352        F358   1.385       .  S
C352       F1137   1.380       .  S
F357       C1132   1.382       .  S
C359        C360   1.411       .  A
C359        C364   1.412       .  A
C359        H366   1.066       .  S
C360        C361   1.461       .  A
C361        C368   1.528       .  S
C361        C362   1.426       .  A
C362        C363   1.397       .  A
C362        H367   1.082       .  S
C363        C364   1.423       .  A
C364        C365   1.525       .  S
C365        F369   1.385       .  S
C365        F370   1.382       .  S
C365        F371   1.383       .  S
C368        F372   1.364       .  S
C368        F373   1.371       .  S
C368        F374   1.386       .  S
C375        C376   1.399       .  A
C375        C380   1.397       .  A
C375        H382   1.084       .  S
C376        C377   1.414       .  A
C377        C384   1.520       .  S
C377        C378   1.405       .  A
C378        C379   1.426       .  A
C378        H383   1.074       .  S
C379        C380   1.443       .  A
C380        C381   1.529       .  S
C381        F385   1.386       .  S
C381        F386   1.357       .  S
C381        F387   1.382       .  S
C384        F389   1.378       .  S
C384        F390   1.386       .  S
C384        F778   1.379       .  S
F388        C774   1.382       .  S
O391        C393   1.276       .  A
O391      Zr1963   2.377       .  S
O392        C393   1.286       .  A
O392       Zr429   2.421   1_556  S
C393        C721   1.441       .  S
O394        C396   1.286       .  A
O394       Zr406   2.418       .  S
O395        C396   1.285       .  A
O395      Zr1210   2.431       .  S
C396        C673   1.499       .  S
O397        C399   1.286       .  A
O397      Zr1966   2.420       .  S
O398        C399   1.282       .  A
C399        C766   1.493       .  S
O400        C402   1.283       .  A
O400       Zr403   2.433       .  S
O401        C402   1.298       .  A
O401       Zr820   2.484   1_556  S
C402        C753   1.515       .  S
Zr403      O1951   2.381   1_455  S
Zr403       O404   2.432   1_455  S
Zr403       O405   2.435       .  S
Zr403      O1969   2.371   1_455  S
Zr403      O1213   2.350       .  S
Zr403      O1995   2.377   1_455  S
O404       H2007   0.990       .  S
O405       H2006   0.989   1_455  S
O405        H450   0.990   1_455  S
Zr406      O1957   2.417   1_455  S
Zr406      O1967   2.438       .  S
Zr406       O408   2.433       .  S
Zr406       O410   2.362       .  S
Zr406      O1579   2.360   1_455  S
Zr406      O1994   2.370   1_455  S
Zr406      O1216   2.365       .  S
O407      Zr1966   2.434       .  S
O407       H2008   0.990       .  S
O407        H451   0.990       .  S
O408       H2001   0.989       .  S
O409      Zr1963   2.372   1_554  S
O409      Zr1576   2.363       .  S
O409       Zr429   2.393       .  S
O410      Zr1210   2.377       .  S
O410        H437   0.966       .  S
O411        C413   1.287       .  A
O411      Zr1983   2.416       .  S
O412        C413   1.278       .  A
C413        C654   1.475       .  S
O414        C416   1.286       .  A
O414       Zr426   2.427       .  S
O415        C416   1.293       .  A
O415       Zr819   2.469   1_545  S
C416        C689   1.518       .  S
O417        C419   1.282       .  A
O417      Zr1986   2.407       .  S
O418        C419   1.292       .  A
O418       Zr430   2.449   1_545  S
C419        C705   1.482       .  S
O420        C422   1.289       .  A
O420       Zr423   2.451       .  S
O421        C422   1.286       .  A
O421      Zr1209   2.424   1_546  S
C422        C734   1.475       .  S
Zr423      O1971   2.421       .  S
Zr423       O424   2.438       .  S
Zr423       O425   2.433       .  S
Zr423      O1601   2.364   1_556  S
Zr423       O432   2.367   1_556  S
Zr423      O1215   2.357       .  S
Zr423      O1993   2.378   1_545  S
O424       H2004   0.990       .  S
O424        H449   0.990       .  S
O425       H2005   0.990       .  S
Zr426      O1977   2.415       .  S
Zr426      O1987   2.433       .  S
Zr426       O428   2.435       .  S
Zr426      O1991   2.363       .  S
Zr426      O1996   2.379   1_545  S
Zr426      O1214   2.360   1_545  S
O427      Zr1986   2.435       .  S
O427       H2003   0.990   1_455  S
O428       H2002   0.990       .  S
O428        H452   0.990       .  S
Zr429       O805   2.452       .  S
Zr429      O1201   2.431   1_554  S
Zr429      O1212   2.371       .  S
Zr429       O435   2.387   1_554  S
Zr430      O1175   2.427       .  S
Zr430       O791   2.489       .  S
Zr430      O1190   2.374       .  S
Zr430       O431   2.403   1_565  S
Zr430       O436   2.394       .  S
O431      Zr1593   2.364       .  S
O431      Zr1986   2.361       .  S
O431        H439   0.966       .  S
O432      Zr1209   2.372   1_545  S
O433      Zr1183   2.361       .  S
O433      Zr1983   2.381   1_565  S
O434      Zr1966   2.365       .  S
O434      Zr1206   2.355       .  S
O434        H438   0.966       .  S
O435      Zr1963   2.377       .  S
O435      Zr1203   2.348       .  S
O435        H440   0.965       .  S
O436      Zr1186   2.363       .  S
O436      Zr1986   2.380   1_565  S
H441       O1968   0.990       .  S
H442       O1988   0.990       .  S
H443       O1987   0.990       .  S
H444       O1984   0.990       .  S
H445       O1985   0.990       .  S
H446       O1965   0.989       .  S
H447       O1964   0.990       .  S
H448       O1967   0.990   1_655  S
C453        C609   1.682       .  S
C453        C622   1.649       .  S
C453        C641   1.607       .  S
C453        C657   1.574       .  S
C454        C574   1.627       .  S
C454        C590   1.631       .  S
C454        C638   1.629       .  S
C454        C750   1.602       .  S
C455        C545   1.641       .  S
C455        C558   1.660       .  S
C455        C577   1.667       .  S
C455        C670   1.560       .  S
C456        C526   1.641       .  S
C456        C542   1.637       .  S
C456        C606   1.671       .  S
C456        C702   1.575       .  S
C457        C497   1.671       .  S
C457        C513   1.645       .  S
C457        C625   1.673       .  S
C457        C737   1.582       .  S
C458        C478   1.623       .  S
C458        C494   1.676       .  S
C458        C529   1.655       .  S
C458        C686   1.576       .  S
C459        C465   1.667       .  S
C459        C481   1.574       .  S
C459        C561   1.657       .  S
C459        C769   1.574       .  S
C460        C462   1.673       .  S
C460        C510   1.601       .  S
C460        C593   1.671       .  S
C460        C718   1.570       .  S
C461        C462   1.441       .  A
C461        C466   1.449       .  A
C461        H468   1.080       .  S
C462        C463   1.416       .  A
C463        C470   1.524       .  S
C463        C464   1.420       .  A
C464        C465   1.449       .  A
C464        H469   1.072       .  S
C465        C466   1.451       .  A
C466        C467   1.520       .  S
C467        F471   1.385       .  S
C467        F472   1.370       .  S
C467        F473   1.383       .  S
C470        F474   1.384       .  S
C470        F475   1.372       .  S
C470        F476   1.383       .  S
C477        C478   1.390       .  A
C477        C482   1.399       .  A
C477        H484   1.071       .  S
C478        C479   1.456       .  A
C479        C486   1.528       .  S
C479        C480   1.438       .  A
C480        C481   1.423       .  A
C480        H485   1.079       .  S
C481        C482   1.397       .  A
C482        C483   1.490       .  S
C483        F487   1.333       .  S
C483        F488   1.354       .  S
C483        F489   1.316       .  S
C486        F490   1.378       .  S
C486        F491   1.374       .  S
C486        F492   1.385       .  S
C493        C494   1.440       .  A
C493        C498   1.417       .  A
C493        H500   1.071       .  S
C494        C495   1.478       .  A
C495        C502   1.535       .  S
C495        C496   1.462       .  A
C496        C497   1.430       .  A
C496        H501   1.072       .  S
C497        C498   1.425       .  A
C498        C499   1.534       .  S
C499        F503   1.377       .  S
C499        F504   1.376       .  S
C499        F505   1.361       .  S
C502        F506   1.369       .  S
C502        F507   1.385       .  S
C502        F508   1.380       .  S
C509        C510   1.430       .  A
C509        C514   1.462       .  A
C509        H516   1.077       .  S
C510        C511   1.371       .  A
C511        C518   1.435       .  S
C511        C512   1.400       .  A
C512        C513   1.398       .  A
C512        H517   1.057       .  S
C513        C514   1.471       .  A
C514        C515   1.527       .  S
C515        F519   1.385       .  S
C515        F520   1.371       .  S
C515        F521   1.381       .  S
C518        F522   1.357       .  S
C518        F523   1.354       .  S
C518        F524   1.389       .  S
C525        C526   1.428       .  A
C525        C530   1.433       .  A
C525        H532   1.067       .  S
C526        C527   1.443       .  A
C527        C534   1.519       .  S
C527        C528   1.425       .  A
C528        C529   1.429       .  A
C528        H533   1.078       .  S
C529        C530   1.440       .  A
C530        C531   1.521       .  S
C531        F535   1.357       .  S
C531        F536   1.377       .  S
C531        F537   1.385       .  S
C534        F538   1.382       .  S
C534        F539   1.375       .  S
C534        F540   1.385       .  S
C541        C542   1.443       .  A
C541        C546   1.464       .  A
C541        H548   1.074       .  S
C542        C543   1.389       .  A
C543        C550   1.438       .  S
C543        C544   1.400       .  A
C544        C545   1.368       .  A
C544        H549   1.075       .  S
C545        C546   1.461       .  A
C546        C547   1.523       .  S
C547        F551   1.385       .  S
C547        F552   1.378       .  S
C547        F553   1.376       .  S
C550        F554   1.324       .  S
C550        F555   1.331       .  S
C550        F556   1.373       .  S
C557        C558   1.426       .  A
C557        C562   1.439       .  A
C557        H564   1.080       .  S
C558        C559   1.448       .  A
C559        C566   1.513       .  S
C559        C560   1.438       .  A
C560        C561   1.413       .  A
C560        H565   1.065       .  S
C561        C562   1.458       .  A
C562        C563   1.521       .  S
C563        F567   1.382       .  S
C563        F568   1.372       .  S
C563        F569   1.385       .  S
C566        F570   1.360       .  S
C566        F571   1.386       .  S
C566        F572   1.375       .  S
C573        C574   1.407       .  A
C573        C578   1.452       .  A
C573        H580   1.081       .  S
C574        C575   1.424       .  A
C575        C582   1.522       .  S
C575        C576   1.411       .  A
C576        C577   1.431       .  A
C576        H581   1.071       .  S
C577        C578   1.472       .  A
C578        C579   1.526       .  S
C579        F583   1.385       .  S
C579        F584   1.366       .  S
C579        F585   1.381       .  S
C582        F586   1.382       .  S
C582        F587   1.370       .  S
C582        F588   1.383       .  S
C589        C590   1.424       .  A
C589        C594   1.439       .  A
C589        H596   1.076       .  S
C590        C591   1.450       .  A
C591        C598   1.507       .  S
C591        C592   1.420       .  A
C592        C593   1.397       .  A
C592        H597   1.061       .  S
C593        C594   1.457       .  A
C594        C595   1.522       .  S
C595        F599   1.386       .  S
C595        F600   1.372       .  S
C595        F601   1.381       .  S
C598        F602   1.369       .  S
C598        F603   1.377       .  S
C598        F604   1.374       .  S
C605        C606   1.428       .  A
C605        C610   1.460       .  A
C605        H612   1.077       .  S
C606        C607   1.432       .  A
C607        C614   1.519       .  S
C607        C608   1.431       .  A
C608        C609   1.434       .  A
C608        H613   1.071       .  S
C609        C610   1.463       .  A
C610        C611   1.520       .  S
C611        F615   1.384       .  S
C611        F616   1.371       .  S
C611        F617   1.383       .  S
C614        F618   1.383       .  S
C614        F619   1.375       .  S
C614        F620   1.382       .  S
C621        C622   1.388       .  A
C621        C626   1.432       .  A
C621        H628   1.055       .  S
C622        C623   1.456       .  A
C623        C630   1.519       .  S
C623        C624   1.445       .  A
C624        C625   1.429       .  A
C624        H629   1.070       .  S
C625        C626   1.474       .  A
C626        C627   1.504       .  S
C627        F631   1.386       .  S
C627        F632   1.372       .  S
C627        F633   1.369       .  S
C630        F634   1.384       .  S
C630        F635   1.369       .  S
C630        F636   1.383       .  S
C637        C638   1.397       .  A
C637        C642   1.413       .  A
C637        H644   1.082       .  S
C638        C639   1.461       .  A
C639        C646   1.525       .  S
C639        C640   1.448       .  A
C640        C641   1.424       .  A
C640        H645   1.082       .  S
C641        C642   1.404       .  A
C642        C643   1.487       .  S
C643        F647   1.330       .  S
C643        F648   1.340       .  S
C643        F649   1.328       .  S
C646        F650   1.381       .  S
C646        F651   1.375       .  S
C646        F652   1.384       .  S
C653        C654   1.392       .  A
C653        C658   1.392       .  A
C653        H660   1.083       .  S
C654        C655   1.408       .  A
C655        C662   1.524       .  S
C655        C656   1.400       .  A
C656        C657   1.431       .  A
C656        H661   1.071       .  S
C657        C658   1.443       .  A
C658        C659   1.519       .  S
C659        F663   1.387       .  S
C659        F664   1.379       .  S
C659        F665   1.363       .  S
C662        F667   1.382       .  S
C662        F668   1.385       .  S
C669        C670   1.422       .  A
C669        C674   1.412       .  A
C669        H676   1.076       .  S
C670        C671   1.442       .  A
C671        C678   1.530       .  S
C671        C672   1.399       .  A
C672        C673   1.403       .  A
C672        H677   1.081       .  S
C673        C674   1.417       .  A
C674        C675   1.521       .  S
C675        F679   1.385       .  S
C675        F680   1.383       .  S
C678        F682   1.379       .  S
C678        F683   1.370       .  S
C678        F684   1.386       .  S
C685        C686   1.421       .  A
C685        C690   1.414       .  A
C685        H692   1.074       .  S
C686        C687   1.439       .  A
C687        C694   1.523       .  S
C687        C688   1.412       .  A
C688        C689   1.411       .  A
C688        H693   1.083       .  S
C689        C690   1.420       .  A
C690        C691   1.520       .  S
C691        F695   1.385       .  S
C691        F696   1.379       .  S
C694        F698   1.377       .  S
C694        F699   1.368       .  S
C694        F700   1.386       .  S
C701        C702   1.407       .  A
C701        C706   1.390       .  A
C701        H708   1.069       .  S
C702        C703   1.457       .  A
C703        C710   1.527       .  S
C703        C704   1.417       .  A
C704        C705   1.393       .  A
C704        H709   1.082       .  S
C705        C706   1.408       .  A
C706        C707   1.521       .  S
C707        F711   1.384       .  S
C707        F712   1.386       .  S
C707        F713   1.382       .  S
C710        F714   1.372       .  S
C710        F715   1.378       .  S
C710        F716   1.386       .  S
C717        C718   1.420       .  A
C717        C722   1.384       .  A
C717        H724   1.061       .  S
C718        C719   1.459       .  A
C719        C726   1.538       .  S
C719        C720   1.400       .  A
C720        C721   1.383       .  A
C720        H725   1.085       .  S
C721        C722   1.400       .  A
C722        C723   1.525       .  S
C723        F727   1.384       .  S
C723        F728   1.375       .  S
C723        F729   1.384       .  S
C726        F730   1.383       .  S
C726        F731   1.361       .  S
C726        F732   1.387       .  S
C733        C734   1.391       .  A
C733        C738   1.416       .  A
C733        H740   1.084       .  S
C734        C735   1.404       .  A
C735        C742   1.508       .  S
C735        C736   1.399       .  A
C736        C737   1.402       .  A
C736        H741   1.068       .  S
C737        C738   1.458       .  A
C738        C739   1.535       .  S
C739        F743   1.383       .  S
C739        F744   1.366       .  S
C739        F745   1.386       .  S
C742        F746   1.382       .  S
C742       F1527   1.382       .  S
C742        F748   1.384       .  S
F747       C1522   1.380       .  S
C749        C750   1.413       .  A
C749        C754   1.412       .  A
C749        H756   1.069       .  S
C750        C751   1.461       .  A
C751        C758   1.528       .  S
C751        C752   1.425       .  A
C752        C753   1.396       .  A
C752        H757   1.082       .  S
C753        C754   1.421       .  A
C754        C755   1.523       .  S
C755        F759   1.385       .  S
C755        F760   1.380       .  S
C755        F761   1.385       .  S
C758        F762   1.364       .  S
C758        F763   1.371       .  S
C758        F764   1.386       .  S
C765        C766   1.397       .  A
C765        C770   1.397       .  A
C765        H772   1.085       .  S
C766        C767   1.413       .  A
C767        C774   1.521       .  S
C767        C768   1.409       .  A
C768        C769   1.429       .  A
C768        H773   1.074       .  S
C769        C770   1.443       .  A
C770        C771   1.527       .  S
C771        F775   1.387       .  S
C771        F776   1.358       .  S
C771        F777   1.381       .  S
C774        F779   1.379       .  S
C774        F780   1.385       .  S
O781        C783   1.276       .  A
O781      Zr2353   2.375       .  S
O782        C783   1.289       .  A
O782       Zr819   2.432       .  S
C783       C1111   1.447       .  S
O784        C786   1.288       .  A
O784       Zr796   2.430       .  S
O785        C786   1.284       .  A
C786       C1063   1.507       .  S
O787        C789   1.287       .  A
O787      Zr2356   2.425       .  S
O788        C789   1.285       .  A
O788      Zr1209   2.425       .  S
C789       C1156   1.492       .  S
O790        C792   1.282       .  A
O790       Zr793   2.428       .  S
O791        C792   1.299       .  A
C792       C1143   1.517       .  S
Zr793      O2341   2.379   1_455  S
Zr793       O794   2.432   1_455  S
Zr793       O795   2.436       .  S
Zr793      O2359   2.373   1_455  S
Zr793      O1190   2.351       .  S
Zr793      O2385   2.375   1_465  S
O794       H2397   0.990       .  S
O795       H2396   0.989   1_455  S
O795        H840   0.990   1_455  S
Zr796      O2347   2.423   1_455  S
Zr796      O2357   2.436       .  S
Zr796       O798   2.436       .  S
Zr796       O800   2.362   1_554  S
Zr796      O2749   2.360   1_454  S
Zr796      O2384   2.367   1_455  S
O797      Zr2356   2.436       .  S
O797       H2398   0.991       .  S
O797        H841   0.990       .  S
O798       H2391   0.990   1_455  S
O799      Zr2353   2.373       .  S
O799      Zr2746   2.355       .  S
O799       Zr819   2.386       .  S
O800      Zr1183   2.355       .  S
O800        H827   0.966       .  S
O801        C803   1.285       .  A
O801      Zr2373   2.413       .  S
O802        C803   1.280       .  A
O802      Zr1210   2.400       .  S
C803       C1044   1.479       .  S
O804        C806   1.287       .  A
O804       Zr816   2.432       .  S
O805        C806   1.290       .  A
C806       C1079   1.509       .  S
O807        C809   1.279       .  A
O807      Zr2376   2.400       .  S
O808        C809   1.293       .  A
O808       Zr820   2.453       .  S
C809       C1095   1.480       .  S
O810        C812   1.289       .  A
O810       Zr813   2.453       .  S
O811        C812   1.285       .  A
C812       C1124   1.473       .  S
Zr813      O2361   2.409       .  S
Zr813       O814   2.437       .  S
Zr813       O815   2.436       .  S
Zr813      O2771   2.369       .  S
Zr813       O822   2.364       .  S
Zr813      O2383   2.382       .  S
O814       H2394   0.990       .  S
O814        H839   0.990       .  S
O815       H2395   0.990       .  S
Zr816      O2367   2.418       .  S
Zr816      O2377   2.431       .  S
Zr816       O818   2.437       .  S
Zr816      O1212   2.366       .  S
Zr816      O2381   2.365       .  S
Zr816      O2386   2.381       .  S
O817      Zr2376   2.436       .  S
O817       H2393   0.990   1_455  S
O818       H2392   0.990       .  S
O818        H842   0.990       .  S
Zr819      O1178   2.431       .  S
Zr819      O1214   2.383       .  S
Zr819       O825   2.396   1_565  S
Zr820      O1192   2.404   1_554  S
Zr820       O821   2.401       .  S
Zr820      O1213   2.387   1_554  S
Zr820       O826   2.394       .  S
O821      Zr2763   2.367   1_554  S
O821      Zr2376   2.365       .  S
O821        H829   0.966       .  S
O822      Zr1206   2.362       .  S
O823      Zr2373   2.383       .  S
O823      Zr1210   2.389       .  S
O824      Zr2356   2.363       .  S
O824      Zr1209   2.378       .  S
O824        H828   0.966       .  S
O825      Zr2353   2.375   1_545  S
O825        H830   0.965       .  S
O826      Zr2376   2.379       .  S
H831       O2358   0.990       .  S
H832       O2378   0.990       .  S
H833       O2377   0.989       .  S
H834       O2374   0.990       .  S
H835       O2375   0.990   1_655  S
H836       O2355   0.990       .  S
H837       O2354   0.990       .  S
H838       O2357   0.990   1_655  S
C843        C999   1.678       .  S
C843       C1012   1.650       .  S
C843       C1031   1.608       .  S
C843       C1047   1.574       .  S
C844        C964   1.623       .  S
C844        C980   1.640       .  S
C844       C1028   1.628       .  S
C844       C1140   1.604       .  S
C845        C935   1.647       .  S
C845        C948   1.663       .  S
C845        C967   1.666       .  S
C845       C1060   1.568       .  S
C846        C916   1.645       .  S
C846        C932   1.640       .  S
C846        C996   1.667       .  S
C846       C1092   1.575       .  S
C847        C887   1.672       .  S
C847        C903   1.648       .  S
C847       C1015   1.674       .  S
C847       C1127   1.584       .  S
C848        C868   1.618       .  S
C848        C884   1.677       .  S
C848        C919   1.658       .  S
C848       C1076   1.573       .  S
C849        C855   1.662       .  S
C849        C871   1.572       .  S
C849        C951   1.658       .  S
C849       C1159   1.572       .  S
C850        C852   1.669       .  S
C850        C900   1.601       .  S
C850        C983   1.673       .  S
C850       C1108   1.573       .  S
C851        C852   1.440       .  A
C851        C856   1.449       .  A
C851        H858   1.080       .  S
C852        C853   1.416       .  A
C853        C860   1.526       .  S
C853        C854   1.421       .  A
C854        C855   1.449       .  A
C854        H859   1.073       .  S
C855        C856   1.449       .  A
C856        C857   1.518       .  S
C857        F861   1.384       .  S
C857        F862   1.369       .  S
C857        F863   1.383       .  S
C860        F864   1.383       .  S
C860        F865   1.374       .  S
C860        F866   1.384       .  S
C867        C868   1.385       .  A
C867        C872   1.397       .  A
C867        H874   1.070       .  S
C868        C869   1.453       .  A
C869        C876   1.529       .  S
C869        C870   1.439       .  A
C870        C871   1.425       .  A
C870        H875   1.079       .  S
C871        C872   1.395       .  A
C872        C873   1.487       .  S
C873        F877   1.336       .  S
C873        F878   1.354       .  S
C873        F879   1.321       .  S
C876        F880   1.379       .  S
C876        F881   1.374       .  S
C876        F882   1.385       .  S
C883        C884   1.444       .  A
C883        C888   1.420       .  A
C883        H890   1.071       .  S
C884        C885   1.476       .  A
C885        C892   1.533       .  S
C885        C886   1.461       .  A
C886        C887   1.430       .  A
C886        H891   1.071       .  S
C887        C888   1.427       .  A
C888        C889   1.539       .  S
C889        F893   1.376       .  S
C889        F894   1.375       .  S
C889        F895   1.363       .  S
C892        F896   1.369       .  S
C892        F897   1.386       .  S
C892        F898   1.380       .  S
C899        C900   1.430       .  A
C899        C904   1.464       .  A
C899        H906   1.077       .  S
C900        C901   1.371       .  A
C901        C908   1.435       .  S
C901        C902   1.401       .  A
C902        C903   1.400       .  A
C902        H907   1.057       .  S
C903        C904   1.469       .  A
C904        C905   1.525       .  S
C905        F909   1.385       .  S
C905        F910   1.372       .  S
C905        F911   1.382       .  S
C908        F912   1.358       .  S
C908        F913   1.358       .  S
C908        F914   1.388       .  S
C915        C916   1.431       .  A
C915        C920   1.438       .  A
C915        H922   1.068       .  S
C916        C917   1.442       .  A
C917        C924   1.518       .  S
C917        C918   1.426       .  A
C918        C919   1.429       .  A
C918        H923   1.078       .  S
C919        C920   1.439       .  A
C920        C921   1.521       .  S
C921        F925   1.357       .  S
C921        F926   1.378       .  S
C921        F927   1.385       .  S
C924        F928   1.382       .  S
C924        F929   1.375       .  S
C924        F930   1.385       .  S
C931        C932   1.443       .  A
C931        C936   1.466       .  A
C931        H938   1.075       .  S
C932        C933   1.392       .  A
C933        C940   1.442       .  S
C933        C934   1.404       .  A
C934        C935   1.372       .  A
C934        H939   1.076       .  S
C935        C936   1.463       .  A
C936        C937   1.522       .  S
C937        F941   1.385       .  S
C937        F942   1.378       .  S
C937        F943   1.377       .  S
C940        F944   1.320       .  S
C940        F945   1.333       .  S
C940        F946   1.372       .  S
C947        C948   1.426       .  A
C947        C952   1.438       .  A
C947        H954   1.080       .  S
C948        C949   1.450       .  A
C949        C956   1.513       .  S
C949        C950   1.439       .  A
C950        C951   1.413       .  A
C950        H955   1.069       .  S
C951        C952   1.459       .  A
C952        C953   1.522       .  S
C953        F957   1.381       .  S
C953        F958   1.373       .  S
C953        F959   1.385       .  S
C956        F960   1.357       .  S
C956        F961   1.385       .  S
C956        F962   1.377       .  S
C963        C964   1.404       .  A
C963        C968   1.450       .  A
C963        H970   1.079       .  S
C964        C965   1.420       .  A
C965        C972   1.521       .  S
C965        C966   1.411       .  A
C966        C967   1.434       .  A
C966        H971   1.072       .  S
C967        C968   1.475       .  A
C968        C969   1.527       .  S
C969        F973   1.386       .  S
C969        F974   1.367       .  S
C969        F975   1.383       .  S
C972        F976   1.383       .  S
C972        F977   1.372       .  S
C972        F978   1.383       .  S
C979        C980   1.426       .  A
C979        C984   1.445       .  A
C979        H986   1.077       .  S
C980        C981   1.453       .  A
C981        C988   1.507       .  S
C981        C982   1.420       .  A
C982        C983   1.394       .  A
C982        H987   1.061       .  S
C983        C984   1.457       .  A
C984        C985   1.520       .  S
C985        F989   1.386       .  S
C985        F990   1.374       .  S
C985        F991   1.379       .  S
C988        F992   1.369       .  S
C988        F993   1.376       .  S
C988        F994   1.375       .  S
C995        C996   1.423       .  A
C995       C1000   1.457       .  A
C995       H1002   1.076       .  S
C996        C997   1.436       .  A
C997       C1004   1.522       .  S
C997        C998   1.431       .  A
C998        C999   1.430       .  A
C998       H1003   1.072       .  S
C999       C1000   1.463       .  A
C1000      C1001   1.519       .  S
C1001      F1005   1.384       .  S
C1001      F1006   1.370       .  S
C1001      F1007   1.384       .  S
C1004      F1008   1.382       .  S
C1004      F1009   1.373       .  S
C1004      F1010   1.382       .  S
C1011      C1012   1.389       .  A
C1011      C1016   1.433       .  A
C1011      H1018   1.057       .  S
C1012      C1013   1.456       .  A
C1013      C1020   1.518       .  S
C1013      C1014   1.446       .  A
C1014      C1015   1.428       .  A
C1014      H1019   1.070       .  S
C1015      C1016   1.473       .  A
C1016      C1017   1.501       .  S
C1017      F1021   1.385       .  S
C1017      F1022   1.372       .  S
C1017      F1023   1.369       .  S
C1020      F1024   1.384       .  S
C1020      F1025   1.370       .  S
C1020      F1026   1.383       .  S
C1027      C1028   1.393       .  A
C1027      C1032   1.409       .  A
C1027      H1034   1.081       .  S
C1028      C1029   1.461       .  A
C1029      C1036   1.523       .  S
C1029      C1030   1.448       .  A
C1030      C1031   1.424       .  A
C1030      H1035   1.082       .  S
C1031      C1032   1.404       .  A
C1032      C1033   1.482       .  S
C1033      F1037   1.340       .  S
C1033      F1038   1.339       .  S
C1033      F1039   1.329       .  S
C1036      F1040   1.381       .  S
C1036      F1041   1.375       .  S
C1036      F1042   1.384       .  S
C1043      C1044   1.395       .  A
C1043      C1048   1.397       .  A
C1043      H1050   1.083       .  S
C1044      C1045   1.408       .  A
C1045      C1052   1.524       .  S
C1045      C1046   1.398       .  A
C1046      C1047   1.429       .  A
C1046      H1051   1.070       .  S
C1047      C1048   1.445       .  A
C1048      C1049   1.524       .  S
C1049      F1053   1.387       .  S
C1049      F1054   1.380       .  S
C1049      F1055   1.363       .  S
C1052      F1446   1.383       .  S
C1052      F1057   1.382       .  S
C1052      F1058   1.385       .  S
F1056      C1442   1.384       .  S
C1059      C1060   1.423       .  A
C1059      C1064   1.416       .  A
C1059      H1066   1.077       .  S
C1060      C1061   1.444       .  A
C1061      C1068   1.530       .  S
C1061      C1062   1.401       .  A
C1062      C1063   1.402       .  A
C1062      H1067   1.079       .  S
C1063      C1064   1.420       .  A
C1064      C1065   1.522       .  S
C1065      F1069   1.385       .  S
C1065      F1070   1.383       .  S
C1065      F1461   1.383       .  S
C1068      F1072   1.379       .  S
C1068      F1073   1.369       .  S
C1068      F1074   1.386       .  S
F1071      C1455   1.384       .  S
C1075      C1076   1.422       .  A
C1075      C1080   1.414       .  A
C1075      H1082   1.075       .  S
C1076      C1077   1.439       .  A
C1077      C1084   1.520       .  S
C1077      C1078   1.407       .  A
C1078      C1079   1.407       .  A
C1078      H1083   1.084       .  S
C1079      C1080   1.420       .  A
C1080      C1081   1.521       .  S
C1081      F1085   1.385       .  S
C1081      F1086   1.378       .  S
C1081      F1477   1.383       .  S
C1084      F1088   1.378       .  S
C1084      F1089   1.366       .  S
C1084      F1090   1.386       .  S
F1087      C1471   1.382       .  S
C1091      C1092   1.406       .  A
C1091      C1096   1.391       .  A
C1091      H1098   1.067       .  S
C1092      C1093   1.459       .  A
C1093      C1100   1.530       .  S
C1093      C1094   1.416       .  A
C1094      C1095   1.390       .  A
C1094      H1099   1.082       .  S
C1095      C1096   1.411       .  A
C1096      C1097   1.522       .  S
C1097      F1101   1.384       .  S
C1097      F1102   1.386       .  S
C1097      F1103   1.380       .  S
C1100      F1104   1.373       .  S
C1100      F1105   1.377       .  S
C1100      F1106   1.386       .  S
C1107      C1108   1.421       .  A
C1107      C1112   1.387       .  A
C1107      H1114   1.061       .  S
C1108      C1109   1.458       .  A
C1109      C1116   1.537       .  S
C1109      C1110   1.404       .  A
C1110      C1111   1.385       .  A
C1110      H1115   1.084       .  S
C1111      C1112   1.401       .  A
C1112      C1113   1.527       .  S
C1113      F1117   1.384       .  S
C1113      F1118   1.376       .  S
C1113      F1119   1.383       .  S
C1116      F1120   1.383       .  S
C1116      F1121   1.361       .  S
C1116      F1122   1.387       .  S
C1123      C1124   1.392       .  A
C1123      C1128   1.415       .  A
C1123      H1130   1.083       .  S
C1124      C1125   1.404       .  A
C1125      C1132   1.511       .  S
C1125      C1126   1.401       .  A
C1126      C1127   1.404       .  A
C1126      H1131   1.068       .  S
C1127      C1128   1.456       .  A
C1128      C1129   1.537       .  S
C1129      F1133   1.383       .  S
C1129      F1134   1.367       .  S
C1129      F1135   1.386       .  S
C1132      F1136   1.382       .  S
C1132      F1138   1.385       .  S
C1139      C1140   1.416       .  A
C1139      C1144   1.414       .  A
C1139      H1146   1.068       .  S
C1140      C1141   1.457       .  A
C1141      C1148   1.526       .  S
C1141      C1142   1.426       .  A
C1142      C1143   1.398       .  A
C1142      H1147   1.081       .  S
C1143      C1144   1.422       .  A
C1144      C1145   1.526       .  S
C1145      F1149   1.385       .  S
C1145      F1150   1.382       .  S
C1145      F1151   1.384       .  S
C1148      F1152   1.365       .  S
C1148      F1153   1.371       .  S
C1148      F1154   1.386       .  S
C1155      C1156   1.398       .  A
C1155      C1160   1.398       .  A
C1155      H1162   1.085       .  S
C1156      C1157   1.412       .  A
C1157      C1164   1.519       .  S
C1157      C1158   1.407       .  A
C1158      C1159   1.428       .  A
C1158      H1163   1.074       .  S
C1159      C1160   1.443       .  A
C1160      C1161   1.526       .  S
C1161      F1165   1.386       .  S
C1161      F1166   1.359       .  S
C1161      F1167   1.381       .  S
C1164      F1558   1.379       .  S
C1164      F1169   1.379       .  S
C1164      F1170   1.385       .  S
F1168      C1554   1.378       .  S
O1171      C1173   1.277       .  A
O1171     Zr2743   2.382       .  S
O1172      C1173   1.286       .  A
O1172     Zr1209   2.422   1_556  S
C1173      C1501   1.446       .  S
O1174      C1176   1.287       .  A
O1174     Zr1186   2.426       .  S
O1175      C1176   1.284       .  A
C1176      C1453   1.501       .  S
O1177      C1179   1.287       .  A
O1177     Zr2746   2.422       .  S
O1178      C1179   1.286       .  A
C1179      C1546   1.497       .  S
O1180      C1182   1.282       .  A
O1180     Zr1183   2.430       .  S
O1181      C1182   1.298       .  A
C1182      C1533   1.519       .  S
Zr1183     O2731   2.393   1_455  S
Zr1183     O1184   2.434   1_455  S
Zr1183     O1185   2.435       .  S
Zr1183     O2749   2.370   1_455  S
Zr1183     O2775   2.377   1_455  S
O1184      H2787   0.990   1_655  S
O1185      H2786   0.989   1_455  S
O1185      H1230   0.990   1_455  S
Zr1186     O2737   2.423   1_455  S
Zr1186     O2747   2.438       .  S
Zr1186     O1188   2.434       .  S
Zr1186     O1190   2.364       .  S
Zr1186     O2359   2.360   1_455  S
Zr1186     O2774   2.365   1_455  S
O1187     Zr2746   2.436       .  S
O1187      H2788   0.990       .  S
O1187      H1231   0.990       .  S
O1188      H2781   0.990       .  S
O1189     Zr2743   2.373       .  S
O1189     Zr2356   2.361   1_556  S
O1189     Zr1209   2.392   1_556  S
O1190      H1217   0.966       .  S
O1191      C1193   1.286       .  A
O1191     Zr2763   2.414       .  S
O1192      C1193   1.281       .  A
C1193      C1434   1.483       .  S
O1194      C1196   1.286       .  A
O1194     Zr1206   2.428       .  S
O1195      C1196   1.291       .  A
C1196      C1469   1.512       .  S
O1197      C1199   1.281       .  A
O1197     Zr2766   2.402       .  S
O1198      C1199   1.292       .  A
O1198     Zr1210   2.449       .  S
C1199      C1485   1.480       .  S
O1200      C1202   1.290       .  A
O1200     Zr1203   2.460       .  S
O1201      C1202   1.287       .  A
C1202      C1514   1.484       .  S
Zr1203     O2751   2.412       .  S
Zr1203     O1204   2.435       .  S
Zr1203     O1205   2.434       .  S
Zr1203     O2381   2.367   1_556  S
Zr1203     O1212   2.362   1_556  S
Zr1203     O2773   2.383       .  S
O1204      H2784   0.990       .  S
O1204      H1229   0.990       .  S
O1205      H2785   0.990       .  S
Zr1206     O2757   2.411       .  S
Zr1206     O2767   2.433       .  S
Zr1206     O1208   2.436       .  S
Zr1206     O2771   2.365       .  S
Zr1206     O2776   2.377       .  S
O1207     Zr2766   2.430       .  S
O1207      H2783   0.990   1_455  S
O1208      H2782   0.990       .  S
O1208      H1232   0.990       .  S
Zr1209     O1215   2.391   1_564  S
Zr1210     O1211   2.405       .  S
Zr1210     O1216   2.393       .  S
O1211     Zr2373   2.369       .  S
O1211     Zr2766   2.370       .  S
O1211      H1219   0.965       .  S
O1213     Zr2763   2.380       .  S
O1214     Zr2746   2.366       .  S
O1214      H1218   0.966       .  S
O1215     Zr2743   2.369   1_545  S
O1215      H1220   0.965       .  S
O1216     Zr2766   2.373       .  S
H1221      O2748   0.990       .  S
H1222      O2768   0.990       .  S
H1223      O2767   0.990       .  S
H1224      O2764   0.990   1_655  S
H1225      O2765   0.990   1_655  S
H1226      O2745   0.990       .  S
H1227      O2744   0.990       .  S
H1228      O2747   0.990   1_655  S
C1233      C1389   1.680       .  S
C1233      C1402   1.652       .  S
C1233      C1421   1.611       .  S
C1233      C1437   1.582       .  S
C1234      C1354   1.629       .  S
C1234      C1370   1.636       .  S
C1234      C1418   1.631       .  S
C1234      C1530   1.603       .  S
C1235      C1325   1.644       .  S
C1235      C1338   1.661       .  S
C1235      C1357   1.667       .  S
C1235      C1450   1.563       .  S
C1236      C1306   1.642       .  S
C1236      C1322   1.639       .  S
C1236      C1386   1.669       .  S
C1236      C1482   1.573       .  S
C1237      C1277   1.673       .  S
C1237      C1293   1.643       .  S
C1237      C1405   1.676       .  S
C1237      C1517   1.588       .  S
C1238      C1258   1.622       .  S
C1238      C1274   1.681       .  S
C1238      C1309   1.654       .  S
C1238      C1466   1.576       .  S
C1239      C1245   1.667       .  S
C1239      C1261   1.576       .  S
C1239      C1341   1.657       .  S
C1239      C1549   1.579       .  S
C1240      C1242   1.667       .  S
C1240      C1290   1.598       .  S
C1240      C1373   1.672       .  S
C1240      C1498   1.571       .  S
C1241      C1242   1.438       .  A
C1241      C1246   1.448       .  A
C1241      H1248   1.080       .  S
C1242      C1243   1.414       .  A
C1243      C1250   1.523       .  S
C1243      C1244   1.419       .  A
C1244      C1245   1.450       .  A
C1244      H1249   1.072       .  S
C1245      C1246   1.451       .  A
C1246      C1247   1.518       .  S
C1247      F1251   1.384       .  S
C1247      F1252   1.370       .  S
C1247      F1253   1.384       .  S
C1250      F1254   1.384       .  S
C1250      F1255   1.373       .  S
C1250      F1256   1.383       .  S
C1257      C1258   1.389       .  A
C1257      C1262   1.400       .  A
C1257      H1264   1.072       .  S
C1258      C1259   1.456       .  A
C1259      C1266   1.528       .  S
C1259      C1260   1.439       .  A
C1260      C1261   1.421       .  A
C1260      H1265   1.080       .  S
C1261      C1262   1.399       .  A
C1262      C1263   1.490       .  S
C1263      F1267   1.334       .  S
C1263      F1268   1.355       .  S
C1263      F1269   1.314       .  S
C1266      F1270   1.379       .  S
C1266      F1271   1.374       .  S
C1266      F1272   1.386       .  S
C1273      C1274   1.444       .  A
C1273      C1278   1.421       .  A
C1273      H1280   1.071       .  S
C1274      C1275   1.481       .  A
C1275      C1282   1.534       .  S
C1275      C1276   1.463       .  A
C1276      C1277   1.428       .  A
C1276      H1281   1.073       .  S
C1277      C1278   1.428       .  A
C1278      C1279   1.542       .  S
C1279      F1283   1.375       .  S
C1279      F1284   1.379       .  S
C1279      F1285   1.361       .  S
C1282      F1286   1.368       .  S
C1282      F1287   1.386       .  S
C1282      F1288   1.380       .  S
C1289      C1290   1.430       .  A
C1289      C1294   1.461       .  A
C1289      H1296   1.077       .  S
C1290      C1291   1.369       .  A
C1291      C1298   1.436       .  S
C1291      C1292   1.398       .  A
C1292      C1293   1.398       .  A
C1292      H1297   1.056       .  S
C1293      C1294   1.468       .  A
C1294      C1295   1.527       .  S
C1295      F1299   1.385       .  S
C1295      F1300   1.372       .  S
C1295      F1301   1.381       .  S
C1298      F1302   1.357       .  S
C1298      F1303   1.355       .  S
C1298      F1304   1.389       .  S
C1305      C1306   1.429       .  A
C1305      C1310   1.434       .  A
C1305      H1312   1.068       .  S
C1306      C1307   1.443       .  A
C1307      C1314   1.520       .  S
C1307      C1308   1.427       .  A
C1308      C1309   1.431       .  A
C1308      H1313   1.078       .  S
C1309      C1310   1.437       .  A
C1310      C1311   1.519       .  S
C1311      F1315   1.357       .  S
C1311      F1316   1.376       .  S
C1311      F1317   1.384       .  S
C1314      F1318   1.382       .  S
C1314      F1319   1.376       .  S
C1314      F1320   1.385       .  S
C1321      C1322   1.443       .  A
C1321      C1326   1.467       .  A
C1321      H1328   1.075       .  S
C1322      C1323   1.390       .  A
C1323      C1330   1.437       .  S
C1323      C1324   1.401       .  A
C1324      C1325   1.367       .  A
C1324      H1329   1.076       .  S
C1325      C1326   1.462       .  A
C1326      C1327   1.522       .  S
C1327      F1331   1.385       .  S
C1327      F1332   1.378       .  S
C1327      F1333   1.377       .  S
C1330      F1334   1.325       .  S
C1330      F1335   1.330       .  S
C1330      F1336   1.374       .  S
C1337      C1338   1.424       .  A
C1337      C1342   1.438       .  A
C1337      H1344   1.079       .  S
C1338      C1339   1.451       .  A
C1339      C1346   1.514       .  S
C1339      C1340   1.440       .  A
C1340      C1341   1.412       .  A
C1340      H1345   1.068       .  S
C1341      C1342   1.458       .  A
C1342      C1343   1.519       .  S
C1343      F1347   1.382       .  S
C1343      F1348   1.372       .  S
C1343      F1349   1.385       .  S
C1346      F1350   1.361       .  S
C1346      F1351   1.386       .  S
C1346      F1352   1.377       .  S
C1353      C1354   1.407       .  A
C1353      C1358   1.450       .  A
C1353      H1360   1.080       .  S
C1354      C1355   1.426       .  A
C1355      C1362   1.524       .  S
C1355      C1356   1.413       .  A
C1356      C1357   1.432       .  A
C1356      H1361   1.072       .  S
C1357      C1358   1.471       .  A
C1358      C1359   1.525       .  S
C1359      F1363   1.385       .  S
C1359      F1364   1.366       .  S
C1359      F1365   1.381       .  S
C1362      F1366   1.383       .  S
C1362      F1367   1.371       .  S
C1362      F1368   1.383       .  S
C1369      C1370   1.428       .  A
C1369      C1374   1.442       .  A
C1369      H1376   1.077       .  S
C1370      C1371   1.452       .  A
C1371      C1378   1.510       .  S
C1371      C1372   1.421       .  A
C1372      C1373   1.398       .  A
C1372      H1377   1.061       .  S
C1373      C1374   1.454       .  A
C1374      C1375   1.523       .  S
C1375      F1379   1.385       .  S
C1375      F1380   1.373       .  S
C1375      F1381   1.380       .  S
C1378      F1382   1.369       .  S
C1378      F1383   1.376       .  S
C1378      F1384   1.375       .  S
C1385      C1386   1.425       .  A
C1385      C1390   1.459       .  A
C1385      H1392   1.077       .  S
C1386      C1387   1.433       .  A
C1387      C1394   1.521       .  S
C1387      C1388   1.431       .  A
C1388      C1389   1.434       .  A
C1388      H1393   1.072       .  S
C1389      C1390   1.464       .  A
C1390      C1391   1.519       .  S
C1391      F1395   1.383       .  S
C1391      F1396   1.371       .  S
C1391      F1397   1.384       .  S
C1394      F1398   1.383       .  S
C1394      F1399   1.375       .  S
C1394      F1400   1.382       .  S
C1401      C1402   1.389       .  A
C1401      C1406   1.433       .  A
C1401      H1408   1.055       .  S
C1402      C1403   1.455       .  A
C1403      C1410   1.518       .  S
C1403      C1404   1.447       .  A
C1404      C1405   1.430       .  A
C1404      H1409   1.068       .  S
C1405      C1406   1.472       .  A
C1406      C1407   1.500       .  S
C1407      F1411   1.385       .  S
C1407      F1412   1.372       .  S
C1407      F1413   1.370       .  S
C1410      F1414   1.384       .  S
C1410      F1415   1.369       .  S
C1410      F1416   1.384       .  S
C1417      C1418   1.395       .  A
C1417      C1422   1.413       .  A
C1417      H1424   1.082       .  S
C1418      C1419   1.462       .  A
C1419      C1426   1.523       .  S
C1419      C1420   1.449       .  A
C1420      C1421   1.424       .  A
C1420      H1425   1.082       .  S
C1421      C1422   1.406       .  A
C1422      C1423   1.487       .  S
C1423      F1427   1.328       .  S
C1423      F1428   1.341       .  S
C1423      F1429   1.327       .  S
C1426      F1430   1.382       .  S
C1426      F1431   1.375       .  S
C1426      F1432   1.385       .  S
C1433      C1434   1.394       .  A
C1433      C1438   1.399       .  A
C1433      H1440   1.082       .  S
C1434      C1435   1.408       .  A
C1435      C1442   1.524       .  S
C1435      C1436   1.402       .  A
C1436      C1437   1.431       .  A
C1436      H1441   1.071       .  S
C1437      C1438   1.446       .  A
C1438      C1439   1.523       .  S
C1439      F1443   1.387       .  S
C1439      F1444   1.379       .  S
C1439      F1445   1.364       .  S
C1442      F1447   1.383       .  S
C1442      F1448   1.385       .  S
C1449      C1450   1.422       .  A
C1449      C1454   1.414       .  A
C1449      H1456   1.077       .  S
C1450      C1451   1.443       .  A
C1451      C1458   1.529       .  S
C1451      C1452   1.401       .  A
C1452      C1453   1.403       .  A
C1452      H1457   1.081       .  S
C1453      C1454   1.418       .  A
C1454      C1455   1.522       .  S
C1455      F1459   1.385       .  S
C1455      F1460   1.383       .  S
C1458      F1462   1.379       .  S
C1458      F1463   1.370       .  S
C1458      F1464   1.386       .  S
C1465      C1466   1.423       .  A
C1465      C1470   1.416       .  A
C1465      H1472   1.076       .  S
C1466      C1467   1.437       .  A
C1467      C1474   1.517       .  S
C1467      C1468   1.408       .  A
C1468      C1469   1.407       .  A
C1468      H1473   1.084       .  S
C1469      C1470   1.419       .  A
C1470      C1471   1.519       .  S
C1471      F1475   1.384       .  S
C1471      F1476   1.378       .  S
C1474      F1478   1.377       .  S
C1474      F1479   1.367       .  S
C1474      F1480   1.386       .  S
C1481      C1482   1.405       .  A
C1481      C1486   1.389       .  A
C1481      H1488   1.068       .  S
C1482      C1483   1.457       .  A
C1483      C1490   1.527       .  S
C1483      C1484   1.417       .  A
C1484      C1485   1.392       .  A
C1484      H1489   1.082       .  S
C1485      C1486   1.409       .  A
C1486      C1487   1.519       .  S
C1487      F1491   1.383       .  S
C1487      F1492   1.386       .  S
C1487      F1493   1.382       .  S
C1490      F1494   1.372       .  S
C1490      F1495   1.378       .  S
C1490      F1496   1.386       .  S
C1497      C1498   1.418       .  A
C1497      C1502   1.385       .  A
C1497      H1504   1.062       .  S
C1498      C1499   1.460       .  A
C1499      C1506   1.538       .  S
C1499      C1500   1.405       .  A
C1500      C1501   1.385       .  A
C1500      H1505   1.085       .  S
C1501      C1502   1.401       .  A
C1502      C1503   1.524       .  S
C1503      F1507   1.383       .  S
C1503      F1508   1.375       .  S
C1503      F1509   1.383       .  S
C1506      F1510   1.383       .  S
C1506      F1511   1.363       .  S
C1506      F1512   1.387       .  S
C1513      C1514   1.393       .  A
C1513      C1518   1.418       .  A
C1513      H1520   1.083       .  S
C1514      C1515   1.408       .  A
C1515      C1522   1.508       .  S
C1515      C1516   1.405       .  A
C1516      C1517   1.404       .  A
C1516      H1521   1.069       .  S
C1517      C1518   1.456       .  A
C1518      C1519   1.536       .  S
C1519      F1523   1.382       .  S
C1519      F1524   1.369       .  S
C1519      F1525   1.386       .  S
C1522      F1526   1.382       .  S
C1522      F1528   1.384       .  S
C1529      C1530   1.411       .  A
C1529      C1534   1.412       .  A
C1529      H1536   1.065       .  S
C1530      C1531   1.460       .  A
C1531      C1538   1.529       .  S
C1531      C1532   1.427       .  A
C1532      C1533   1.399       .  A
C1532      H1537   1.081       .  S
C1533      C1534   1.423       .  A
C1534      C1535   1.525       .  S
C1535      F1539   1.385       .  S
C1535      F1540   1.383       .  S
C1535      F1541   1.383       .  S
C1538      F1542   1.364       .  S
C1538      F1543   1.369       .  S
C1538      F1544   1.386       .  S
C1545      C1546   1.398       .  A
C1545      C1550   1.399       .  A
C1545      H1552   1.085       .  S
C1546      C1547   1.413       .  A
C1547      C1554   1.519       .  S
C1547      C1548   1.410       .  A
C1548      C1549   1.430       .  A
C1548      H1553   1.074       .  S
C1549      C1550   1.442       .  A
C1550      C1551   1.524       .  S
C1551      F1555   1.386       .  S
C1551      F1556   1.357       .  S
C1551      F1557   1.382       .  S
C1554      F1559   1.378       .  S
C1554      F1560   1.385       .  S
O1561      C1563   1.277       .  A
O1562      C1563   1.287       .  A
O1562     Zr1599   2.422       .  S
C1563      C1891   1.444       .  S
O1564      C1566   1.287       .  A
O1564     Zr1576   2.423       .  S
O1565      C1566   1.285       .  A
O1565     Zr2380   2.432       .  S
C1566      C1843   1.500       .  S
O1567      C1569   1.287       .  A
O1568      C1569   1.283       .  A
O1568     Zr1989   2.419       .  S
C1569      C1936   1.492       .  S
O1570      C1572   1.279       .  A
O1570     Zr1573   2.420       .  S
O1571      C1572   1.299       .  A
O1571     Zr2770   2.490       .  S
C1572      C1923   1.518       .  S
Zr1573     O1574   2.433       .  S
Zr1573     O1575   2.435       .  S
Zr1573     O1970   2.346       .  S
Zr1573     O2383   2.350       .  S
O1575      H1620   0.990       .  S
Zr1576     O1578   2.436       .  S
Zr1576     O1580   2.366   1_554  S
Zr1576     O2386   2.364       .  S
O1577      H1621   0.990       .  S
O1579     Zr1599   2.395       .  S
O1580     Zr1963   2.344       .  S
O1580     Zr2380   2.377   1_556  S
O1580      H1607   0.965       .  S
O1581      C1583   1.286       .  A
O1582      C1583   1.282       .  A
O1582     Zr1990   2.407   1_545  S
C1583      C1824   1.482       .  S
O1584      C1586   1.285       .  A
O1584     Zr1596   2.424   1_655  S
O1585      C1586   1.290       .  A
O1585     Zr2769   2.456   1_545  S
C1586      C1859   1.509       .  S
O1587      C1589   1.281       .  A
O1588      C1589   1.295       .  A
O1588     Zr1600   2.461   1_544  S
C1589      C1875   1.487       .  S
O1590      C1592   1.289       .  A
O1590     Zr1593   2.451   1_655  S
O1591      C1592   1.287       .  A
O1591     Zr2379   2.426       .  S
C1592      C1904   1.476       .  S
Zr1593     O1594   2.438       .  S
Zr1593     O1595   2.434       .  S
Zr1593     O1602   2.363   1_455  S
Zr1593     O2385   2.349   1_455  S
O1594      H1619   0.990       .  S
Zr1596     O1598   2.435       .  S
Zr1596     O1992   2.366   1_455  S
Zr1596     O2384   2.357   1_445  S
O1598      H1622   0.990   1_455  S
Zr1599     O1958   2.415       .  S
Zr1599     O2755   2.472       .  S
Zr1599     O2371   2.424       .  S
Zr1599     O2382   2.365       .  S
Zr1599     O1994   2.381       .  S
Zr1599     O1605   2.395       .  S
Zr1600     O2345   2.418   1_556  S
Zr1600     O2741   2.500       .  S
Zr1600     O1972   2.409   1_565  S
Zr1600     O2360   2.383       .  S
Zr1600     O1601   2.403   1_566  S
Zr1600     O1993   2.384       .  S
Zr1600     O1606   2.391   1_556  S
O1601      H1609   0.965       .  S
O1602     Zr1986   2.362   1_655  S
O1602     Zr2379   2.373       .  S
O1603     Zr2353   2.354   1_545  S
O1603     Zr1990   2.386   1_545  S
O1604     Zr2376   2.360   1_655  S
O1604     Zr1989   2.383       .  S
O1604      H1608   0.966       .  S
O1605     Zr2373   2.349   1_655  S
O1605      H1610   0.965       .  S
O1606     Zr2356   2.355       .  S
C1623      C1779   1.685       .  S
C1623      C1792   1.644       .  S
C1623      C1811   1.617       .  S
C1623      C1827   1.580       .  S
C1624      C1744   1.627       .  S
C1624      C1760   1.632       .  S
C1624      C1808   1.634       .  S
C1624      C1920   1.596       .  S
C1625      C1715   1.639       .  S
C1625      C1728   1.660       .  S
C1625      C1747   1.662       .  S
C1625      C1840   1.558       .  S
C1626      C1696   1.642       .  S
C1626      C1712   1.633       .  S
C1626      C1776   1.678       .  S
C1626      C1872   1.581       .  S
C1627      C1667   1.673       .  S
C1627      C1683   1.645       .  S
C1627      C1795   1.668       .  S
C1627      C1907   1.583       .  S
C1628      C1648   1.628       .  S
C1628      C1664   1.676       .  S
C1628      C1699   1.657       .  S
C1628      C1856   1.569       .  S
C1629      C1635   1.662       .  S
C1629      C1651   1.572       .  S
C1629      C1731   1.653       .  S
C1629      C1939   1.571       .  S
C1630      C1632   1.665       .  S
C1630      C1680   1.599       .  S
C1630      C1763   1.669       .  S
C1630      C1888   1.566       .  S
C1631      C1632   1.437       .  A
C1631      C1636   1.448       .  A
C1631      H1638   1.080       .  S
C1632      C1633   1.414       .  A
C1633      C1640   1.526       .  S
C1633      C1634   1.420       .  A
C1634      C1635   1.448       .  A
C1634      H1639   1.073       .  S
C1635      C1636   1.452       .  A
C1636      C1637   1.519       .  S
C1637      F1641   1.385       .  S
C1637      F1642   1.368       .  S
C1637      F1643   1.383       .  S
C1640      F1644   1.384       .  S
C1640      F1645   1.373       .  S
C1640      F1646   1.383       .  S
C1647      C1648   1.384       .  A
C1647      C1652   1.396       .  A
C1647      H1654   1.067       .  S
C1648      C1649   1.457       .  A
C1649      C1656   1.526       .  S
C1649      C1650   1.440       .  A
C1650      C1651   1.423       .  A
C1650      H1655   1.080       .  S
C1651      C1652   1.394       .  A
C1652      C1653   1.485       .  S
C1653      F1657   1.335       .  S
C1653      F1658   1.355       .  S
C1653      F1659   1.324       .  S
C1656      F1660   1.377       .  S
C1656      F1661   1.376       .  S
C1656      F1662   1.386       .  S
C1663      C1664   1.438       .  A
C1663      C1668   1.415       .  A
C1663      H1670   1.068       .  S
C1664      C1665   1.482       .  A
C1665      C1672   1.538       .  S
C1665      C1666   1.464       .  A
C1666      C1667   1.432       .  A
C1666      H1671   1.073       .  S
C1667      C1668   1.425       .  A
C1668      C1669   1.534       .  S
C1669      F1673   1.380       .  S
C1669      F1674   1.376       .  S
C1669      F1675   1.359       .  S
C1672      F1676   1.370       .  S
C1672      F1677   1.385       .  S
C1672      F1678   1.381       .  S
C1679      C1680   1.431       .  A
C1679      C1684   1.462       .  A
C1679      H1686   1.077       .  S
C1680      C1681   1.370       .  A
C1681      C1688   1.435       .  S
C1681      C1682   1.401       .  A
C1682      C1683   1.402       .  A
C1682      H1687   1.055       .  S
C1683      C1684   1.468       .  A
C1684      C1685   1.523       .  S
C1685      F1689   1.385       .  S
C1685      F1690   1.372       .  S
C1685      F1691   1.382       .  S
C1688      F1692   1.358       .  S
C1688      F1693   1.357       .  S
C1688      F1694   1.386       .  S
C1695      C1696   1.426       .  A
C1695      C1700   1.433       .  A
C1695      H1702   1.066       .  S
C1696      C1697   1.446       .  A
C1697      C1704   1.519       .  S
C1697      C1698   1.425       .  A
C1698      C1699   1.429       .  A
C1698      H1703   1.081       .  S
C1699      C1700   1.440       .  A
C1700      C1701   1.518       .  S
C1701      F1705   1.354       .  S
C1701      F1706   1.377       .  S
C1701      F1707   1.386       .  S
C1704      F1708   1.382       .  S
C1704      F1709   1.375       .  S
C1704      F1710   1.385       .  S
C1711      C1712   1.441       .  A
C1711      C1716   1.461       .  A
C1711      H1718   1.075       .  S
C1712      C1713   1.391       .  A
C1713      C1720   1.443       .  S
C1713      C1714   1.402       .  A
C1714      C1715   1.370       .  A
C1714      H1719   1.076       .  S
C1715      C1716   1.460       .  A
C1716      C1717   1.523       .  S
C1717      F1721   1.385       .  S
C1717      F1722   1.378       .  S
C1717      F1723   1.377       .  S
C1720      F1724   1.320       .  S
C1720      F1725   1.337       .  S
C1720      F1726   1.371       .  S
C1727      C1728   1.425       .  A
C1727      C1732   1.436       .  A
C1727      H1734   1.079       .  S
C1728      C1729   1.450       .  A
C1729      C1736   1.515       .  S
C1729      C1730   1.435       .  A
C1730      C1731   1.409       .  A
C1730      H1735   1.066       .  S
C1731      C1732   1.457       .  A
C1732      C1733   1.521       .  S
C1733      F1737   1.382       .  S
C1733      F1738   1.373       .  S
C1733      F1739   1.385       .  S
C1736      F1740   1.359       .  S
C1736      F1741   1.387       .  S
C1736      F1742   1.379       .  S
C1743      C1744   1.404       .  A
C1743      C1748   1.448       .  A
C1743      H1750   1.076       .  S
C1744      C1745   1.424       .  A
C1745      C1752   1.525       .  S
C1745      C1746   1.410       .  A
C1746      C1747   1.432       .  A
C1746      H1751   1.070       .  S
C1747      C1748   1.472       .  A
C1748      C1749   1.525       .  S
C1749      F1753   1.385       .  S
C1749      F1754   1.364       .  S
C1749      F1755   1.381       .  S
C1752      F1756   1.383       .  S
C1752      F1757   1.372       .  S
C1752      F1758   1.382       .  S
C1759      C1760   1.429       .  A
C1759      C1764   1.442       .  A
C1759      H1766   1.077       .  S
C1760      C1761   1.451       .  A
C1761      C1768   1.506       .  S
C1761      C1762   1.420       .  A
C1762      C1763   1.395       .  A
C1762      H1767   1.062       .  S
C1763      C1764   1.453       .  A
C1764      C1765   1.525       .  S
C1765      F1769   1.385       .  S
C1765      F1770   1.376       .  S
C1765      F1771   1.380       .  S
C1768      F1772   1.371       .  S
C1768      F1773   1.375       .  S
C1768      F1774   1.374       .  S
C1775      C1776   1.430       .  A
C1775      C1780   1.465       .  A
C1775      H1782   1.080       .  S
C1776      C1777   1.435       .  A
C1777      C1784   1.517       .  S
C1777      C1778   1.433       .  A
C1778      C1779   1.429       .  A
C1778      H1783   1.072       .  S
C1779      C1780   1.466       .  A
C1780      C1781   1.521       .  S
C1781      F1785   1.383       .  S
C1781      F1786   1.373       .  S
C1781      F1787   1.384       .  S
C1784      F1788   1.382       .  S
C1784      F1789   1.374       .  S
C1784      F1790   1.382       .  S
C1791      C1792   1.388       .  A
C1791      C1796   1.428       .  A
C1791      H1798   1.055       .  S
C1792      C1793   1.456       .  A
C1793      C1800   1.521       .  S
C1793      C1794   1.446       .  A
C1794      C1795   1.429       .  A
C1794      H1799   1.071       .  S
C1795      C1796   1.471       .  A
C1796      C1797   1.504       .  S
C1797      F1801   1.385       .  S
C1797      F1802   1.372       .  S
C1797      F1803   1.369       .  S
C1800      F1804   1.385       .  S
C1800      F1805   1.371       .  S
C1800      F1806   1.383       .  S
C1807      C1808   1.392       .  A
C1807      C1812   1.410       .  A
C1807      H1814   1.081       .  S
C1808      C1809   1.463       .  A
C1809      C1816   1.521       .  S
C1809      C1810   1.454       .  A
C1810      C1811   1.427       .  A
C1810      H1815   1.082       .  S
C1811      C1812   1.405       .  A
C1812      C1813   1.481       .  S
C1813      F1817   1.342       .  S
C1813      F1818   1.341       .  S
C1813      F1819   1.328       .  S
C1816      F1820   1.381       .  S
C1816      F1821   1.375       .  S
C1816      F1822   1.385       .  S
C1823      C1824   1.395       .  A
C1823      C1828   1.396       .  A
C1823      H1830   1.081       .  S
C1824      C1825   1.406       .  A
C1825      C1832   1.523       .  S
C1825      C1826   1.403       .  A
C1826      C1827   1.434       .  A
C1826      H1831   1.073       .  S
C1827      C1828   1.444       .  A
C1828      C1829   1.523       .  S
C1829      F1833   1.387       .  S
C1829      F1834   1.379       .  S
C1829      F1835   1.365       .  S
C1832      F2226   1.383       .  S
C1832      F1837   1.383       .  S
C1832      F1838   1.386       .  S
F1836      C2222   1.383       .  S
C1839      C1840   1.419       .  A
C1839      C1844   1.412       .  A
C1839      H1846   1.077       .  S
C1840      C1841   1.443       .  A
C1841      C1848   1.528       .  S
C1841      C1842   1.399       .  A
C1842      C1843   1.403       .  A
C1842      H1847   1.081       .  S
C1843      C1844   1.419       .  A
C1844      C1845   1.521       .  S
C1845      F1849   1.385       .  S
C1845      F1850   1.383       .  S
C1845      F2241   1.383       .  S
C1848      F1852   1.380       .  S
C1848      F1853   1.367       .  S
C1848      F1854   1.386       .  S
F1851      C2235   1.384       .  S
C1855      C1856   1.422       .  A
C1855      C1860   1.408       .  A
C1855      H1862   1.072       .  S
C1856      C1857   1.439       .  A
C1857      C1864   1.530       .  S
C1857      C1858   1.412       .  A
C1858      C1859   1.411       .  A
C1858      H1863   1.083       .  S
C1859      C1860   1.417       .  A
C1860      C1861   1.522       .  S
C1861      F1865   1.386       .  S
C1861      F1866   1.377       .  S
C1861      F2257   1.382       .  S
C1864      F1868   1.372       .  S
C1864      F1869   1.369       .  S
C1864      F1870   1.386       .  S
F1867      C2251   1.383       .  S
C1871      C1872   1.407       .  A
C1871      C1876   1.392       .  A
C1871      H1878   1.065       .  S
C1872      C1873   1.456       .  A
C1873      C1880   1.526       .  S
C1873      C1874   1.420       .  A
C1874      C1875   1.394       .  A
C1874      H1879   1.082       .  S
C1875      C1876   1.411       .  A
C1876      C1877   1.523       .  S
C1877      F1881   1.384       .  S
C1877      F1882   1.386       .  S
C1877      F1883   1.382       .  S
C1880      F1884   1.374       .  S
C1880      F1885   1.378       .  S
C1880      F1886   1.386       .  S
C1887      C1888   1.420       .  A
C1887      C1892   1.386       .  A
C1887      H1894   1.062       .  S
C1888      C1889   1.457       .  A
C1889      C1896   1.536       .  S
C1889      C1890   1.401       .  A
C1890      C1891   1.384       .  A
C1890      H1895   1.084       .  S
C1891      C1892   1.401       .  A
C1892      C1893   1.526       .  S
C1893      F1897   1.384       .  S
C1893      F1898   1.375       .  S
C1893      F1899   1.383       .  S
C1896      F1900   1.383       .  S
C1896      F1901   1.364       .  S
C1896      F1902   1.387       .  S
C1903      C1904   1.393       .  A
C1903      C1908   1.417       .  A
C1903      H1910   1.083       .  S
C1904      C1905   1.406       .  A
C1905      C1912   1.506       .  S
C1905      C1906   1.399       .  A
C1906      C1907   1.400       .  A
C1906      H1911   1.068       .  S
C1907      C1908   1.456       .  A
C1908      C1909   1.537       .  S
C1909      F1913   1.382       .  S
C1909      F1914   1.368       .  S
C1909      F1915   1.386       .  S
C1912      F1916   1.381       .  S
C1912      F2697   1.382       .  S
C1912      F1918   1.385       .  S
F1917      C2692   1.378       .  S
C1919      C1920   1.406       .  A
C1919      C1924   1.409       .  A
C1919      H1926   1.065       .  S
C1920      C1921   1.459       .  A
C1921      C1928   1.533       .  S
C1921      C1922   1.426       .  A
C1922      C1923   1.400       .  A
C1922      H1927   1.082       .  S
C1923      C1924   1.427       .  A
C1924      C1925   1.525       .  S
C1925      F1929   1.385       .  S
C1925      F1930   1.382       .  S
C1925      F1931   1.383       .  S
C1928      F1932   1.366       .  S
C1928      F1933   1.368       .  S
C1928      F1934   1.386       .  S
C1935      C1936   1.398       .  A
C1935      C1940   1.396       .  A
C1935      H1942   1.084       .  S
C1936      C1937   1.413       .  A
C1937      C1944   1.519       .  S
C1937      C1938   1.406       .  A
C1938      C1939   1.427       .  A
C1938      H1943   1.073       .  S
C1939      C1940   1.442       .  A
C1940      C1941   1.525       .  S
C1941      F1945   1.386       .  S
C1941      F1946   1.360       .  S
C1941      F1947   1.380       .  S
C1944      F2338   1.378       .  S
C1944      F1949   1.376       .  S
C1944      F1950   1.385       .  S
F1948      C2334   1.379       .  S
O1951      C1953   1.277       .  A
O1952      C1953   1.286       .  A
O1952     Zr1989   2.416   1_556  S
C1953      C2281   1.442       .  S
O1954      C1956   1.284       .  A
O1954     Zr1966   2.411       .  S
O1955      C1956   1.285       .  A
O1955     Zr2770   2.430       .  S
C1956      C2233   1.497       .  S
O1957      C1959   1.286       .  A
O1958      C1959   1.283       .  A
C1959      C2326   1.488       .  S
O1960      C1962   1.280       .  A
O1960     Zr1963   2.420       .  S
O1961      C1962   1.300       .  A
O1961     Zr2380   2.493   1_556  S
C1962      C2313   1.520       .  S
Zr1963     O1964   2.435       .  S
Zr1963     O1965   2.434       .  S
Zr1963     O2773   2.356       .  S
O1965      H2010   0.990       .  S
Zr1966     O1968   2.435       .  S
Zr1966     O1970   2.363       .  S
Zr1966     O2776   2.367       .  S
O1967      H2011   0.990       .  S
O1969     Zr1989   2.391   1_556  S
O1970     Zr2770   2.374       .  S
O1970      H1997   0.966       .  S
O1971      C1973   1.286       .  A
O1972      C1973   1.282       .  A
C1973      C2214   1.486       .  S
O1974      C1976   1.286       .  A
O1974     Zr1986   2.427   1_655  S
O1975      C1976   1.291       .  A
O1975     Zr2379   2.457       .  S
C1976      C2249   1.512       .  S
O1977      C1979   1.284       .  A
O1978      C1979   1.291       .  A
O1978     Zr1990   2.439   1_545  S
C1979      C2265   1.479       .  S
O1980      C1982   1.289       .  A
O1980     Zr1983   2.455   1_655  S
O1981      C1982   1.285       .  A
O1981     Zr2769   2.419   1_546  S
C1982      C2294   1.474       .  S
Zr1983     O1984   2.437       .  S
Zr1983     O1985   2.436       .  S
Zr1983     O1992   2.366   1_456  S
Zr1983     O2775   2.349   1_445  S
O1984      H2009   0.990   1_455  S
Zr1986     O1988   2.435       .  S
Zr1986     O2774   2.358   1_445  S
O1988      H2012   0.990   1_455  S
Zr1989     O2365   2.470       .  S
Zr1989     O2761   2.424   1_554  S
Zr1989     O2772   2.367       .  S
Zr1989     O1995   2.397   1_554  S
Zr1990     O2735   2.429       .  S
Zr1990     O2351   2.489       .  S
Zr1990     O2750   2.376       .  S
Zr1990     O1991   2.406   1_565  S
Zr1990     O1996   2.396       .  S
O1991      H1999   0.966       .  S
O1992     Zr2769   2.376   1_545  S
O1993     Zr2743   2.357       .  S
O1994     Zr2766   2.349   1_655  S
O1994      H1998   0.966       .  S
O1995     Zr2763   2.355   1_655  S
O1995      H2000   0.965       .  S
O1996     Zr2746   2.365       .  S
C2013      C2169   1.686       .  S
C2013      C2182   1.646       .  S
C2013      C2201   1.617       .  S
C2013      C2217   1.583       .  S
C2014      C2134   1.630       .  S
C2014      C2150   1.631       .  S
C2014      C2198   1.634       .  S
C2014      C2310   1.604       .  S
C2015      C2105   1.643       .  S
C2015      C2118   1.661       .  S
C2015      C2137   1.666       .  S
C2015      C2230   1.557       .  S
C2016      C2086   1.639       .  S
C2016      C2102   1.634       .  S
C2016      C2166   1.671       .  S
C2016      C2262   1.576       .  S
C2017      C2057   1.672       .  S
C2017      C2073   1.641       .  S
C2017      C2185   1.673       .  S
C2017      C2297   1.579       .  S
C2018      C2038   1.616       .  S
C2018      C2054   1.680       .  S
C2018      C2089   1.653       .  S
C2018      C2246   1.575       .  S
C2019      C2025   1.661       .  S
C2019      C2041   1.562       .  S
C2019      C2121   1.658       .  S
C2019      C2329   1.570       .  S
C2020      C2022   1.664       .  S
C2020      C2070   1.596       .  S
C2020      C2153   1.663       .  S
C2020      C2278   1.571       .  S
C2021      C2022   1.440       .  A
C2021      C2026   1.447       .  A
C2021      H2028   1.079       .  S
C2022      C2023   1.414       .  A
C2023      C2030   1.525       .  S
C2023      C2024   1.416       .  A
C2024      C2025   1.449       .  A
C2024      H2029   1.071       .  S
C2025      C2026   1.448       .  A
C2026      C2027   1.519       .  S
C2027      F2031   1.384       .  S
C2027      F2032   1.370       .  S
C2027      F2033   1.384       .  S
C2030      F2034   1.384       .  S
C2030      F2035   1.372       .  S
C2030      F2036   1.383       .  S
C2037      C2038   1.392       .  A
C2037      C2042   1.398       .  A
C2037      H2044   1.071       .  S
C2038      C2039   1.454       .  A
C2039      C2046   1.529       .  S
C2039      C2040   1.430       .  A
C2040      C2041   1.419       .  A
C2040      H2045   1.079       .  S
C2041      C2042   1.397       .  A
C2042      C2043   1.497       .  S
C2043      F2047   1.332       .  S
C2043      F2048   1.356       .  S
C2043      F2049   1.312       .  S
C2046      F2050   1.377       .  S
C2046      F2051   1.374       .  S
C2046      F2052   1.386       .  S
C2053      C2054   1.444       .  A
C2053      C2058   1.420       .  A
C2053      H2060   1.071       .  S
C2054      C2055   1.477       .  A
C2055      C2062   1.532       .  S
C2055      C2056   1.462       .  A
C2056      C2057   1.429       .  A
C2056      H2061   1.072       .  S
C2057      C2058   1.429       .  A
C2058      C2059   1.542       .  S
C2059      F2063   1.377       .  S
C2059      F2064   1.377       .  S
C2059      F2065   1.362       .  S
C2062      F2066   1.367       .  S
C2062      F2067   1.385       .  S
C2062      F2068   1.380       .  S
C2069      C2070   1.426       .  A
C2069      C2074   1.458       .  A
C2069      H2076   1.076       .  S
C2070      C2071   1.373       .  A
C2071      C2078   1.436       .  S
C2071      C2072   1.401       .  A
C2072      C2073   1.399       .  A
C2072      H2077   1.058       .  S
C2073      C2074   1.465       .  A
C2074      C2075   1.525       .  S
C2075      F2079   1.385       .  S
C2075      F2080   1.372       .  S
C2075      F2081   1.380       .  S
C2078      F2082   1.359       .  S
C2078      F2083   1.353       .  S
C2078      F2084   1.387       .  S
C2085      C2086   1.428       .  A
C2085      C2090   1.433       .  A
C2085      H2092   1.066       .  S
C2086      C2087   1.441       .  A
C2087      C2094   1.519       .  S
C2087      C2088   1.422       .  A
C2088      C2089   1.431       .  A
C2088      H2093   1.077       .  S
C2089      C2090   1.441       .  A
C2090      C2091   1.519       .  S
C2091      F2095   1.356       .  S
C2091      F2096   1.375       .  S
C2091      F2097   1.385       .  S
C2094      F2098   1.383       .  S
C2094      F2099   1.377       .  S
C2094      F2100   1.385       .  S
C2101      C2102   1.442       .  A
C2101      C2106   1.464       .  A
C2101      H2108   1.075       .  S
C2102      C2103   1.389       .  A
C2103      C2110   1.438       .  S
C2103      C2104   1.398       .  A
C2104      C2105   1.365       .  A
C2104      H2109   1.072       .  S
C2105      C2106   1.465       .  A
C2106      C2107   1.525       .  S
C2107      F2111   1.385       .  S
C2107      F2112   1.378       .  S
C2107      F2113   1.376       .  S
C2110      F2114   1.325       .  S
C2110      F2115   1.335       .  S
C2110      F2116   1.373       .  S
C2117      C2118   1.424       .  A
C2117      C2122   1.438       .  A
C2117      H2124   1.080       .  S
C2118      C2119   1.451       .  A
C2119      C2126   1.513       .  S
C2119      C2120   1.439       .  A
C2120      C2121   1.411       .  A
C2120      H2125   1.069       .  S
C2121      C2122   1.462       .  A
C2122      C2123   1.521       .  S
C2123      F2127   1.382       .  S
C2123      F2128   1.372       .  S
C2123      F2129   1.385       .  S
C2126      F2130   1.360       .  S
C2126      F2131   1.386       .  S
C2126      F2132   1.377       .  S
C2133      C2134   1.407       .  A
C2133      C2138   1.452       .  A
C2133      H2140   1.081       .  S
C2134      C2135   1.426       .  A
C2135      C2142   1.523       .  S
C2135      C2136   1.412       .  A
C2136      C2137   1.431       .  A
C2136      H2141   1.072       .  S
C2137      C2138   1.470       .  A
C2138      C2139   1.524       .  S
C2139      F2143   1.385       .  S
C2139      F2144   1.366       .  S
C2139      F2145   1.381       .  S
C2142      F2146   1.383       .  S
C2142      F2147   1.372       .  S
C2142      F2148   1.383       .  S
C2149      C2150   1.426       .  A
C2149      C2154   1.436       .  A
C2149      H2156   1.074       .  S
C2150      C2151   1.453       .  A
C2151      C2158   1.513       .  S
C2151      C2152   1.422       .  A
C2152      C2153   1.400       .  A
C2152      H2157   1.063       .  S
C2153      C2154   1.448       .  A
C2154      C2155   1.520       .  S
C2155      F2159   1.386       .  S
C2155      F2160   1.375       .  S
C2155      F2161   1.378       .  S
C2158      F2162   1.371       .  S
C2158      F2163   1.377       .  S
C2158      F2164   1.374       .  S
C2165      C2166   1.425       .  A
C2165      C2170   1.459       .  A
C2165      H2172   1.078       .  S
C2166      C2167   1.436       .  A
C2167      C2174   1.520       .  S
C2167      C2168   1.433       .  A
C2168      C2169   1.432       .  A
C2168      H2173   1.072       .  S
C2169      C2170   1.466       .  A
C2170      C2171   1.518       .  S
C2171      F2175   1.384       .  S
C2171      F2176   1.371       .  S
C2171      F2177   1.384       .  S
C2174      F2178   1.382       .  S
C2174      F2179   1.373       .  S
C2174      F2180   1.382       .  S
C2181      C2182   1.388       .  A
C2181      C2186   1.431       .  A
C2181      H2188   1.054       .  S
C2182      C2183   1.454       .  A
C2183      C2190   1.519       .  S
C2183      C2184   1.446       .  A
C2184      C2185   1.431       .  A
C2184      H2189   1.069       .  S
C2185      C2186   1.473       .  A
C2186      C2187   1.503       .  S
C2187      F2191   1.385       .  S
C2187      F2192   1.373       .  S
C2187      F2193   1.370       .  S
C2190      F2194   1.384       .  S
C2190      F2195   1.370       .  S
C2190      F2196   1.383       .  S
C2197      C2198   1.398       .  A
C2197      C2202   1.415       .  A
C2197      H2204   1.082       .  S
C2198      C2199   1.462       .  A
C2199      C2206   1.526       .  S
C2199      C2200   1.451       .  A
C2200      C2201   1.427       .  A
C2200      H2205   1.081       .  S
C2201      C2202   1.406       .  A
C2202      C2203   1.489       .  S
C2203      F2207   1.327       .  S
C2203      F2208   1.342       .  S
C2203      F2209   1.327       .  S
C2206      F2210   1.381       .  S
C2206      F2211   1.375       .  S
C2206      F2212   1.385       .  S
C2213      C2214   1.396       .  A
C2213      C2218   1.400       .  A
C2213      H2220   1.082       .  S
C2214      C2215   1.408       .  A
C2215      C2222   1.525       .  S
C2215      C2216   1.404       .  A
C2216      C2217   1.434       .  A
C2216      H2221   1.072       .  S
C2217      C2218   1.444       .  A
C2218      C2219   1.523       .  S
C2219      F2223   1.387       .  S
C2219      F2224   1.379       .  S
C2219      F2225   1.362       .  S
C2222      F2227   1.383       .  S
C2222      F2228   1.385       .  S
C2229      C2230   1.420       .  A
C2229      C2234   1.410       .  A
C2229      H2236   1.076       .  S
C2230      C2231   1.443       .  A
C2231      C2238   1.530       .  S
C2231      C2232   1.399       .  A
C2232      C2233   1.403       .  A
C2232      H2237   1.081       .  S
C2233      C2234   1.416       .  A
C2234      C2235   1.521       .  S
C2235      F2239   1.384       .  S
C2235      F2240   1.383       .  S
C2238      F2242   1.379       .  S
C2238      F2243   1.369       .  S
C2238      F2244   1.386       .  S
C2245      C2246   1.422       .  A
C2245      C2250   1.413       .  A
C2245      H2252   1.074       .  S
C2246      C2247   1.437       .  A
C2247      C2254   1.520       .  S
C2247      C2248   1.409       .  A
C2248      C2249   1.410       .  A
C2248      H2253   1.084       .  S
C2249      C2250   1.420       .  A
C2250      C2251   1.522       .  S
C2251      F2255   1.385       .  S
C2251      F2256   1.379       .  S
C2254      F2258   1.377       .  S
C2254      F2259   1.367       .  S
C2254      F2260   1.386       .  S
C2261      C2262   1.408       .  A
C2261      C2266   1.389       .  A
C2261      H2268   1.068       .  S
C2262      C2263   1.459       .  A
C2263      C2270   1.529       .  S
C2263      C2264   1.418       .  A
C2264      C2265   1.392       .  A
C2264      H2269   1.082       .  S
C2265      C2266   1.405       .  A
C2266      C2267   1.520       .  S
C2267      F2271   1.384       .  S
C2267      F2272   1.386       .  S
C2267      F2273   1.381       .  S
C2270      F2274   1.374       .  S
C2270      F2275   1.378       .  S
C2270      F2276   1.386       .  S
C2277      C2278   1.417       .  A
C2277      C2282   1.381       .  A
C2277      H2284   1.060       .  S
C2278      C2279   1.461       .  A
C2279      C2286   1.540       .  S
C2279      C2280   1.404       .  A
C2280      C2281   1.385       .  A
C2280      H2285   1.085       .  S
C2281      C2282   1.398       .  A
C2282      C2283   1.524       .  S
C2283      F2287   1.384       .  S
C2283      F2288   1.374       .  S
C2283      F2289   1.384       .  S
C2286      F2290   1.384       .  S
C2286      F2291   1.361       .  S
C2286      F2292   1.386       .  S
C2293      C2294   1.393       .  A
C2293      C2298   1.416       .  A
C2293      H2300   1.084       .  S
C2294      C2295   1.404       .  A
C2295      C2302   1.507       .  S
C2295      C2296   1.397       .  A
C2296      C2297   1.399       .  A
C2296      H2301   1.067       .  S
C2297      C2298   1.455       .  A
C2298      C2299   1.534       .  S
C2299      F2303   1.383       .  S
C2299      F2304   1.368       .  S
C2299      F2305   1.386       .  S
C2302      F2306   1.382       .  S
C2302      F3087   1.382       .  S
C2302      F2308   1.385       .  S
F2307      C3082   1.382       .  S
C2309      C2310   1.409       .  A
C2309      C2314   1.411       .  A
C2309      H2316   1.065       .  S
C2310      C2311   1.461       .  A
C2311      C2318   1.527       .  S
C2311      C2312   1.425       .  A
C2312      C2313   1.397       .  A
C2312      H2317   1.081       .  S
C2313      C2314   1.426       .  A
C2314      C2315   1.524       .  S
C2315      F2319   1.385       .  S
C2315      F2320   1.383       .  S
C2315      F2321   1.382       .  S
C2318      F2322   1.364       .  S
C2318      F2323   1.371       .  S
C2318      F2324   1.386       .  S
C2325      C2326   1.396       .  A
C2325      C2330   1.397       .  A
C2325      H2332   1.085       .  S
C2326      C2327   1.411       .  A
C2327      C2334   1.518       .  S
C2327      C2328   1.405       .  A
C2328      C2329   1.426       .  A
C2328      H2333   1.074       .  S
C2329      C2330   1.446       .  A
C2330      C2331   1.529       .  S
C2331      F2335   1.387       .  S
C2331      F2336   1.358       .  S
C2331      F2337   1.380       .  S
C2334      F2339   1.378       .  S
C2334      F2340   1.384       .  S
O2341      C2343   1.276       .  A
O2342      C2343   1.288       .  A
O2342     Zr2379   2.428   1_565  S
C2343      C2671   1.446       .  S
O2344      C2346   1.288       .  A
O2344     Zr2356   2.427       .  S
O2345      C2346   1.283       .  A
C2346      C2623   1.497       .  S
O2347      C2349   1.287       .  A
O2348      C2349   1.282       .  A
O2348     Zr2769   2.413       .  S
C2349      C2716   1.491       .  S
O2350      C2352   1.283       .  A
O2350     Zr2353   2.431       .  S
O2351      C2352   1.299       .  A
C2352      C2703   1.518       .  S
Zr2353     O2354   2.434       .  S
Zr2353     O2355   2.435       .  S
Zr2353     O2750   2.346       .  S
O2355      H2400   0.990       .  S
Zr2356     O2358   2.434       .  S
Zr2356     O2360   2.365   1_554  S
O2357      H2401   0.990   1_455  S
O2359     Zr2379   2.388   1_565  S
O2360     Zr2743   2.356       .  S
O2360      H2387   0.966       .  S
O2361      C2363   1.285       .  A
O2362      C2363   1.282       .  A
O2362     Zr2770   2.411       .  S
C2363      C2604   1.486       .  S
O2364      C2366   1.284       .  A
O2364     Zr2376   2.418   1_655  S
O2365      C2366   1.293       .  A
C2366      C2639   1.516       .  S
O2367      C2369   1.284       .  A
O2368      C2369   1.293       .  A
O2368     Zr2380   2.451       .  S
C2369      C2655   1.487       .  S
O2370      C2372   1.289       .  A
O2370     Zr2373   2.456   1_655  S
O2371      C2372   1.286       .  A
C2372      C2684   1.479       .  S
Zr2373     O2374   2.435       .  S
Zr2373     O2375   2.436       .  S
Zr2373     O2382   2.359   1_455  S
O2374      H2399   0.990       .  S
Zr2376     O2378   2.436       .  S
Zr2376     O2772   2.358   1_455  S
O2378      H2402   0.990       .  S
Zr2379     O2738   2.429   1_545  S
Zr2379     O2774   2.383   1_545  S
Zr2379     O2385   2.390       .  S
Zr2380     O2752   2.411   1_554  S
Zr2380     O2381   2.404       .  S
Zr2380     O2773   2.384   1_554  S
Zr2380     O2386   2.400       .  S
O2381      H2389   0.966       .  S
O2382     Zr2766   2.362   1_655  S
O2383     Zr2770   2.382       .  S
O2384     Zr2769   2.384       .  S
O2384      H2388   0.965       .  S
O2385      H2390   0.965       .  S
C2403      C2559   1.684       .  S
C2403      C2572   1.649       .  S
C2403      C2591   1.615       .  S
C2403      C2607   1.581       .  S
C2404      C2524   1.630       .  S
C2404      C2540   1.635       .  S
C2404      C2588   1.629       .  S
C2404      C2700   1.601       .  S
C2405      C2495   1.638       .  S
C2405      C2508   1.664       .  S
C2405      C2527   1.665       .  S
C2405      C2620   1.558       .  S
C2406      C2476   1.639       .  S
C2406      C2492   1.631       .  S
C2406      C2556   1.670       .  S
C2406      C2652   1.580       .  S
C2407      C2447   1.669       .  S
C2407      C2463   1.647       .  S
C2407      C2575   1.675       .  S
C2407      C2687   1.583       .  S
C2408      C2428   1.618       .  S
C2408      C2444   1.677       .  S
C2408      C2479   1.656       .  S
C2408      C2636   1.575       .  S
C2409      C2415   1.664       .  S
C2409      C2431   1.571       .  S
C2409      C2511   1.662       .  S
C2409      C2719   1.574       .  S
C2410      C2412   1.671       .  S
C2410      C2460   1.605       .  S
C2410      C2543   1.664       .  S
C2410      C2668   1.569       .  S
C2411      C2412   1.443       .  A
C2411      C2416   1.448       .  A
C2411      H2418   1.080       .  S
C2412      C2413   1.413       .  A
C2413      C2420   1.526       .  S
C2413      C2414   1.424       .  A
C2414      C2415   1.451       .  A
C2414      H2419   1.073       .  S
C2415      C2416   1.447       .  A
C2416      C2417   1.519       .  S
C2417      F2421   1.384       .  S
C2417      F2422   1.370       .  S
C2417      F2423   1.383       .  S
C2420      F2424   1.383       .  S
C2420      F2425   1.373       .  S
C2420      F2426   1.383       .  S
C2427      C2428   1.387       .  A
C2427      C2432   1.397       .  A
C2427      H2434   1.070       .  S
C2428      C2429   1.453       .  A
C2429      C2436   1.527       .  S
C2429      C2430   1.437       .  A
C2430      C2431   1.423       .  A
C2430      H2435   1.080       .  S
C2431      C2432   1.397       .  A
C2432      C2433   1.489       .  S
C2433      F2437   1.334       .  S
C2433      F2438   1.354       .  S
C2433      F2439   1.316       .  S
C2436      F2440   1.377       .  S
C2436      F2441   1.374       .  S
C2436      F2442   1.386       .  S
C2443      C2444   1.443       .  A
C2443      C2448   1.419       .  A
C2443      H2450   1.071       .  S
C2444      C2445   1.477       .  A
C2445      C2452   1.533       .  S
C2445      C2446   1.461       .  A
C2446      C2447   1.427       .  A
C2446      H2451   1.073       .  S
C2447      C2448   1.428       .  A
C2448      C2449   1.541       .  S
C2449      F2453   1.377       .  S
C2449      F2454   1.377       .  S
C2449      F2455   1.363       .  S
C2452      F2456   1.369       .  S
C2452      F2457   1.386       .  S
C2452      F2458   1.379       .  S
C2459      C2460   1.430       .  A
C2459      C2464   1.463       .  A
C2459      H2466   1.076       .  S
C2460      C2461   1.374       .  A
C2461      C2468   1.435       .  S
C2461      C2462   1.402       .  A
C2462      C2463   1.400       .  A
C2462      H2467   1.058       .  S
C2463      C2464   1.468       .  A
C2464      C2465   1.525       .  S
C2465      F2469   1.385       .  S
C2465      F2470   1.372       .  S
C2465      F2471   1.381       .  S
C2468      F2472   1.356       .  S
C2468      F2473   1.355       .  S
C2468      F2474   1.389       .  S
C2475      C2476   1.425       .  A
C2475      C2480   1.432       .  A
C2475      H2482   1.066       .  S
C2476      C2477   1.443       .  A
C2477      C2484   1.520       .  S
C2477      C2478   1.425       .  A
C2478      C2479   1.431       .  A
C2478      H2483   1.079       .  S
C2479      C2480   1.441       .  A
C2480      C2481   1.520       .  S
C2481      F2485   1.354       .  S
C2481      F2486   1.376       .  S
C2481      F2487   1.385       .  S
C2484      F2488   1.382       .  S
C2484      F2489   1.376       .  S
C2484      F2490   1.385       .  S
C2491      C2492   1.440       .  A
C2491      C2496   1.462       .  A
C2491      H2498   1.075       .  S
C2492      C2493   1.392       .  A
C2493      C2500   1.441       .  S
C2493      C2494   1.399       .  A
C2494      C2495   1.365       .  A
C2494      H2499   1.075       .  S
C2495      C2496   1.462       .  A
C2496      C2497   1.523       .  S
C2497      F2501   1.385       .  S
C2497      F2502   1.378       .  S
C2497      F2503   1.378       .  S
C2500      F2504   1.326       .  S
C2500      F2505   1.334       .  S
C2500      F2506   1.373       .  S
C2507      C2508   1.425       .  A
C2507      C2512   1.437       .  A
C2507      H2514   1.078       .  S
C2508      C2509   1.451       .  A
C2509      C2516   1.515       .  S
C2509      C2510   1.443       .  A
C2510      C2511   1.416       .  A
C2510      H2515   1.069       .  S
C2511      C2512   1.458       .  A
C2512      C2513   1.520       .  S
C2513      F2517   1.382       .  S
C2513      F2518   1.371       .  S
C2513      F2519   1.385       .  S
C2516      F2520   1.362       .  S
C2516      F2521   1.386       .  S
C2516      F2522   1.376       .  S
C2523      C2524   1.405       .  A
C2523      C2528   1.449       .  A
C2523      H2530   1.077       .  S
C2524      C2525   1.425       .  A
C2525      C2532   1.522       .  S
C2525      C2526   1.412       .  A
C2526      C2527   1.431       .  A
C2526      H2531   1.072       .  S
C2527      C2528   1.470       .  A
C2528      C2529   1.524       .  S
C2529      F2533   1.386       .  S
C2529      F2534   1.367       .  S
C2529      F2535   1.381       .  S
C2532      F2536   1.382       .  S
C2532      F2537   1.369       .  S
C2532      F2538   1.382       .  S
C2539      C2540   1.432       .  A
C2539      C2544   1.443       .  A
C2539      H2546   1.075       .  S
C2540      C2541   1.452       .  A
C2541      C2548   1.508       .  S
C2541      C2542   1.418       .  A
C2542      C2543   1.394       .  A
C2542      H2547   1.061       .  S
C2543      C2544   1.449       .  A
C2544      C2545   1.524       .  S
C2545      F2549   1.384       .  S
C2545      F2550   1.376       .  S
C2545      F2551   1.378       .  S
C2548      F2552   1.369       .  S
C2548      F2553   1.376       .  S
C2548      F2554   1.375       .  S
C2555      C2556   1.426       .  A
C2555      C2560   1.461       .  A
C2555      H2562   1.080       .  S
C2556      C2557   1.434       .  A
C2557      C2564   1.519       .  S
C2557      C2558   1.433       .  A
C2558      C2559   1.431       .  A
C2558      H2563   1.071       .  S
C2559      C2560   1.467       .  A
C2560      C2561   1.520       .  S
C2561      F2565   1.384       .  S
C2561      F2566   1.370       .  S
C2561      F2567   1.384       .  S
C2564      F2568   1.383       .  S
C2564      F2569   1.372       .  S
C2564      F2570   1.382       .  S
C2571      C2572   1.388       .  A
C2571      C2576   1.432       .  A
C2571      H2578   1.056       .  S
C2572      C2573   1.454       .  A
C2573      C2580   1.518       .  S
C2573      C2574   1.447       .  A
C2574      C2575   1.431       .  A
C2574      H2579   1.070       .  S
C2575      C2576   1.473       .  A
C2576      C2577   1.502       .  S
C2577      F2581   1.385       .  S
C2577      F2582   1.372       .  S
C2577      F2583   1.369       .  S
C2580      F2584   1.384       .  S
C2580      F2585   1.369       .  S
C2580      F2586   1.383       .  S
C2587      C2588   1.393       .  A
C2587      C2592   1.410       .  A
C2587      H2594   1.082       .  S
C2588      C2589   1.461       .  A
C2589      C2596   1.524       .  S
C2589      C2590   1.452       .  A
C2590      C2591   1.427       .  A
C2590      H2595   1.081       .  S
C2591      C2592   1.405       .  A
C2592      C2593   1.481       .  S
C2593      F2597   1.333       .  S
C2593      F2598   1.340       .  S
C2593      F2599   1.329       .  S
C2596      F2600   1.382       .  S
C2596      F2601   1.375       .  S
C2596      F2602   1.384       .  S
C2603      C2604   1.396       .  A
C2603      C2608   1.399       .  A
C2603      H2610   1.082       .  S
C2604      C2605   1.409       .  A
C2605      C2612   1.523       .  S
C2605      C2606   1.402       .  A
C2606      C2607   1.430       .  A
C2606      H2611   1.071       .  S
C2607      C2608   1.445       .  A
C2608      C2609   1.521       .  S
C2609      F2613   1.387       .  S
C2609      F2614   1.379       .  S
C2609      F2615   1.361       .  S
C2612      F3006   1.384       .  S
C2612      F2617   1.383       .  S
C2612      F2618   1.384       .  S
F2616      C3002   1.384       .  S
C2619      C2620   1.418       .  A
C2619      C2624   1.410       .  A
C2619      H2626   1.077       .  S
C2620      C2621   1.445       .  A
C2621      C2628   1.529       .  S
C2621      C2622   1.399       .  A
C2622      C2623   1.400       .  A
C2622      H2627   1.081       .  S
C2623      C2624   1.418       .  A
C2624      C2625   1.521       .  S
C2625      F2629   1.385       .  S
C2625      F2630   1.383       .  S
C2625      F3021   1.384       .  S
C2628      F2632   1.379       .  S
C2628      F2633   1.367       .  S
C2628      F2634   1.387       .  S
F2631      C3015   1.384       .  S
C2635      C2636   1.421       .  A
C2635      C2640   1.412       .  A
C2635      H2642   1.073       .  S
C2636      C2637   1.438       .  A
C2637      C2644   1.523       .  S
C2637      C2638   1.410       .  A
C2638      C2639   1.413       .  A
C2638      H2643   1.083       .  S
C2639      C2640   1.419       .  A
C2640      C2641   1.519       .  S
C2641      F2645   1.385       .  S
C2641      F2646   1.377       .  S
C2641      F3037   1.383       .  S
C2644      F2648   1.378       .  S
C2644      F2649   1.366       .  S
C2644      F2650   1.386       .  S
F2647      C3031   1.383       .  S
C2651      C2652   1.408       .  A
C2651      C2656   1.393       .  A
C2651      H2658   1.068       .  S
C2652      C2653   1.459       .  A
C2653      C2660   1.527       .  S
C2653      C2654   1.420       .  A
C2654      C2655   1.393       .  A
C2654      H2659   1.082       .  S
C2655      C2656   1.408       .  A
C2656      C2657   1.519       .  S
C2657      F2661   1.384       .  S
C2657      F2662   1.386       .  S
C2657      F2663   1.382       .  S
C2660      F2664   1.374       .  S
C2660      F2665   1.377       .  S
C2660      F2666   1.386       .  S
C2667      C2668   1.416       .  A
C2667      C2672   1.383       .  A
C2667      H2674   1.059       .  S
C2668      C2669   1.459       .  A
C2669      C2676   1.536       .  S
C2669      C2670   1.405       .  A
C2670      C2671   1.386       .  A
C2670      H2675   1.085       .  S
C2671      C2672   1.400       .  A
C2672      C2673   1.523       .  S
C2673      F2677   1.383       .  S
C2673      F2678   1.374       .  S
C2673      F2679   1.383       .  S
C2676      F2680   1.384       .  S
C2676      F2681   1.364       .  S
C2676      F2682   1.387       .  S
C2683      C2684   1.394       .  A
C2683      C2688   1.416       .  A
C2683      H2690   1.084       .  S
C2684      C2685   1.406       .  A
C2685      C2692   1.508       .  S
C2685      C2686   1.402       .  A
C2686      C2687   1.405       .  A
C2686      H2691   1.066       .  S
C2687      C2688   1.451       .  A
C2688      C2689   1.533       .  S
C2689      F2693   1.383       .  S
C2689      F2694   1.368       .  S
C2689      F2695   1.385       .  S
C2692      F2696   1.382       .  S
C2692      F2698   1.385       .  S
C2699      C2700   1.412       .  A
C2699      C2704   1.411       .  A
C2699      H2706   1.067       .  S
C2700      C2701   1.460       .  A
C2701      C2708   1.531       .  S
C2701      C2702   1.427       .  A
C2702      C2703   1.399       .  A
C2702      H2707   1.082       .  S
C2703      C2704   1.423       .  A
C2704      C2705   1.524       .  S
C2705      F2709   1.385       .  S
C2705      F2710   1.383       .  S
C2705      F2711   1.383       .  S
C2708      F2712   1.365       .  S
C2708      F2713   1.368       .  S
C2708      F2714   1.386       .  S
C2715      C2716   1.397       .  A
C2715      C2720   1.396       .  A
C2715      H2722   1.084       .  S
C2716      C2717   1.413       .  A
C2717      C2724   1.519       .  S
C2717      C2718   1.406       .  A
C2718      C2719   1.428       .  A
C2718      H2723   1.074       .  S
C2719      C2720   1.443       .  A
C2720      C2721   1.525       .  S
C2721      F2725   1.387       .  S
C2721      F2726   1.360       .  S
C2721      F2727   1.378       .  S
C2724      F3118   1.380       .  S
C2724      F2729   1.377       .  S
C2724      F2730   1.385       .  S
F2728      C3114   1.380       .  S
O2731      C2733   1.279       .  A
O2732      C2733   1.288       .  A
O2732     Zr2769   2.429   1_556  S
C2733      C3061   1.451       .  S
O2734      C2736   1.286       .  A
O2734     Zr2746   2.422       .  S
O2735      C2736   1.285       .  A
C2736      C3013   1.496       .  S
O2737      C2739   1.286       .  A
O2738      C2739   1.285       .  A
C2739      C3106   1.497       .  S
O2740      C2742   1.283       .  A
O2740     Zr2743   2.431       .  S
O2741      C2742   1.302       .  A
C2742      C3093   1.523       .  S
Zr2743     O2744   2.431       .  S
Zr2743     O2745   2.436       .  S
O2745      H2790   0.990       .  S
Zr2746     O2748   2.435       .  S
Zr2746     O2750   2.366       .  S
O2747      H2791   0.990       .  S
O2749     Zr2769   2.390   1_556  S
O2750      H2777   0.966       .  S
O2751      C2753   1.285       .  A
O2752      C2753   1.282       .  A
C2753      C2994   1.490       .  S
O2754      C2756   1.285       .  A
O2754     Zr2766   2.424   1_655  S
O2755      C2756   1.294       .  A
C2756      C3029   1.518       .  S
O2757      C2759   1.281       .  A
O2758      C2759   1.289       .  A
O2758     Zr2770   2.433       .  S
C2759      C3045   1.479       .  S
O2760      C2762   1.288       .  A
O2760     Zr2763   2.449   1_655  S
O2761      C2762   1.286       .  A
C2762      C3074   1.475       .  S
Zr2763     O2764   2.436       .  S
Zr2763     O2765   2.435       .  S
Zr2763     O2772   2.363   1_456  S
O2764      H2789   0.990       .  S
Zr2766     O2768   2.435       .  S
O2768      H2792   0.990       .  S
Zr2769     O2775   2.388   1_554  S
Zr2770     O2771   2.406       .  S
Zr2770     O2776   2.399       .  S
O2771      H2779   0.967       .  S
O2774      H2778   0.966       .  S
O2775      H2780   0.963   1_565  S
C2793      C2949   1.683       .  S
C2793      C2962   1.646       .  S
C2793      C2981   1.617       .  S
C2793      C2997   1.584       .  S
C2794      C2914   1.625       .  S
C2794      C2930   1.630       .  S
C2794      C2978   1.635       .  S
C2794      C3090   1.607       .  S
C2795      C2885   1.640       .  S
C2795      C2898   1.665       .  S
C2795      C2917   1.666       .  S
C2795      C3010   1.560       .  S
C2796      C2866   1.641       .  S
C2796      C2882   1.634       .  S
C2796      C2946   1.672       .  S
C2796      C3042   1.571       .  S
C2797      C2837   1.672       .  S
C2797      C2853   1.645       .  S
C2797      C2965   1.672       .  S
C2797      C3077   1.585       .  S
C2798      C2818   1.622       .  S
C2798      C2834   1.682       .  S
C2798      C2869   1.652       .  S
C2798      C3026   1.579       .  S
C2799      C2805   1.669       .  S
C2799      C2821   1.570       .  S
C2799      C2901   1.662       .  S
C2799      C3109   1.577       .  S
C2800      C2802   1.670       .  S
C2800      C2850   1.606       .  S
C2800      C2933   1.666       .  S
C2800      C3058   1.574       .  S
C2801      C2802   1.441       .  A
C2801      C2806   1.451       .  A
C2801      H2808   1.080       .  S
C2802      C2803   1.412       .  A
C2803      C2810   1.523       .  S
C2803      C2804   1.419       .  A
C2804      C2805   1.450       .  A
C2804      H2809   1.072       .  S
C2805      C2806   1.452       .  A
C2806      C2807   1.519       .  S
C2807      F2811   1.384       .  S
C2807      F2812   1.369       .  S
C2807      F2813   1.384       .  S
C2810      F2814   1.383       .  S
C2810      F2815   1.375       .  S
C2810      F2816   1.384       .  S
C2817      C2818   1.392       .  A
C2817      C2822   1.399       .  A
C2817      H2824   1.071       .  S
C2818      C2819   1.456       .  A
C2819      C2826   1.528       .  S
C2819      C2820   1.435       .  A
C2820      C2821   1.419       .  A
C2820      H2825   1.079       .  S
C2821      C2822   1.398       .  A
C2822      C2823   1.493       .  S
C2823      F2827   1.332       .  S
C2823      F2828   1.356       .  S
C2823      F2829   1.314       .  S
C2826      F2830   1.377       .  S
C2826      F2831   1.374       .  S
C2826      F2832   1.386       .  S
C2833      C2834   1.442       .  A
C2833      C2838   1.419       .  A
C2833      H2840   1.071       .  S
C2834      C2835   1.479       .  A
C2835      C2842   1.530       .  S
C2835      C2836   1.463       .  A
C2836      C2837   1.428       .  A
C2836      H2841   1.073       .  S
C2837      C2838   1.428       .  A
C2838      C2839   1.537       .  S
C2839      F2843   1.379       .  S
C2839      F2844   1.376       .  S
C2839      F2845   1.362       .  S
C2842      F2846   1.367       .  S
C2842      F2847   1.385       .  S
C2842      F2848   1.381       .  S
C2849      C2850   1.430       .  A
C2849      C2854   1.464       .  A
C2849      H2856   1.078       .  S
C2850      C2851   1.374       .  A
C2851      C2858   1.436       .  S
C2851      C2852   1.401       .  A
C2852      C2853   1.398       .  A
C2852      H2857   1.058       .  S
C2853      C2854   1.469       .  A
C2854      C2855   1.525       .  S
C2855      F2859   1.385       .  S
C2855      F2860   1.372       .  S
C2855      F2861   1.381       .  S
C2858      F2862   1.357       .  S
C2858      F2863   1.353       .  S
C2858      F2864   1.388       .  S
C2865      C2866   1.429       .  A
C2865      C2870   1.435       .  A
C2865      H2872   1.067       .  S
C2866      C2867   1.441       .  A
C2867      C2874   1.519       .  S
C2867      C2868   1.423       .  A
C2868      C2869   1.430       .  A
C2868      H2873   1.078       .  S
C2869      C2870   1.440       .  A
C2870      C2871   1.521       .  S
C2871      F2875   1.357       .  S
C2871      F2876   1.374       .  S
C2871      F2877   1.385       .  S
C2874      F2878   1.382       .  S
C2874      F2879   1.376       .  S
C2874      F2880   1.385       .  S
C2881      C2882   1.443       .  A
C2881      C2886   1.464       .  A
C2881      H2888   1.076       .  S
C2882      C2883   1.387       .  A
C2883      C2890   1.438       .  S
C2883      C2884   1.399       .  A
C2884      C2885   1.368       .  A
C2884      H2889   1.074       .  S
C2885      C2886   1.462       .  A
C2886      C2887   1.523       .  S
C2887      F2891   1.385       .  S
C2887      F2892   1.378       .  S
C2887      F2893   1.378       .  S
C2890      F2894   1.325       .  S
C2890      F2895   1.334       .  S
C2890      F2896   1.373       .  S
C2897      C2898   1.427       .  A
C2897      C2902   1.442       .  A
C2897      H2904   1.080       .  S
C2898      C2899   1.449       .  A
C2899      C2906   1.511       .  S
C2899      C2900   1.440       .  A
C2900      C2901   1.412       .  A
C2900      H2905   1.068       .  S
C2901      C2902   1.461       .  A
C2902      C2903   1.520       .  S
C2903      F2907   1.382       .  S
C2903      F2908   1.373       .  S
C2903      F2909   1.385       .  S
C2906      F2910   1.359       .  S
C2906      F2911   1.386       .  S
C2906      F2912   1.379       .  S
C2913      C2914   1.404       .  A
C2913      C2918   1.449       .  A
C2913      H2920   1.077       .  S
C2914      C2915   1.424       .  A
C2915      C2922   1.522       .  S
C2915      C2916   1.411       .  A
C2916      C2917   1.431       .  A
C2916      H2921   1.071       .  S
C2917      C2918   1.471       .  A
C2918      C2919   1.525       .  S
C2919      F2923   1.386       .  S
C2919      F2924   1.366       .  S
C2919      F2925   1.382       .  S
C2922      F2926   1.382       .  S
C2922      F2927   1.371       .  S
C2922      F2928   1.382       .  S
C2929      C2930   1.427       .  A
C2929      C2934   1.437       .  A
C2929      H2936   1.076       .  S
C2930      C2931   1.454       .  A
C2931      C2938   1.511       .  S
C2931      C2932   1.421       .  A
C2932      C2933   1.397       .  A
C2932      H2937   1.062       .  S
C2933      C2934   1.450       .  A
C2934      C2935   1.523       .  S
C2935      F2939   1.386       .  S
C2935      F2940   1.374       .  S
C2935      F2941   1.381       .  S
C2938      F2942   1.371       .  S
C2938      F2943   1.376       .  S
C2938      F2944   1.376       .  S
C2945      C2946   1.427       .  A
C2945      C2950   1.462       .  A
C2945      H2952   1.080       .  S
C2946      C2947   1.436       .  A
C2947      C2954   1.521       .  S
C2947      C2948   1.428       .  A
C2948      C2949   1.430       .  A
C2948      H2953   1.070       .  S
C2949      C2950   1.467       .  A
C2950      C2951   1.520       .  S
C2951      F2955   1.383       .  S
C2951      F2956   1.370       .  S
C2951      F2957   1.384       .  S
C2954      F2958   1.382       .  S
C2954      F2959   1.374       .  S
C2954      F2960   1.382       .  S
C2961      C2962   1.387       .  A
C2961      C2966   1.430       .  A
C2961      H2968   1.054       .  S
C2962      C2963   1.453       .  A
C2963      C2970   1.517       .  S
C2963      C2964   1.446       .  A
C2964      C2965   1.431       .  A
C2964      H2969   1.070       .  S
C2965      C2966   1.473       .  A
C2966      C2967   1.502       .  S
C2967      F2971   1.386       .  S
C2967      F2972   1.373       .  S
C2967      F2973   1.369       .  S
C2970      F2974   1.384       .  S
C2970      F2975   1.370       .  S
C2970      F2976   1.383       .  S
C2977      C2978   1.398       .  A
C2977      C2982   1.415       .  A
C2977      H2984   1.082       .  S
C2978      C2979   1.462       .  A
C2979      C2986   1.523       .  S
C2979      C2980   1.452       .  A
C2980      C2981   1.425       .  A
C2980      H2985   1.081       .  S
C2981      C2982   1.408       .  A
C2982      C2983   1.488       .  S
C2983      F2987   1.327       .  S
C2983      F2988   1.342       .  S
C2983      F2989   1.327       .  S
C2986      F2990   1.382       .  S
C2986      F2991   1.375       .  S
C2986      F2992   1.385       .  S
C2993      C2994   1.398       .  A
C2993      C2998   1.400       .  A
C2993      H3000   1.080       .  S
C2994      C2995   1.410       .  A
C2995      C3002   1.526       .  S
C2995      C2996   1.404       .  A
C2996      C2997   1.433       .  A
C2996      H3001   1.071       .  S
C2997      C2998   1.444       .  A
C2998      C2999   1.524       .  S
C2999      F3003   1.387       .  S
C2999      F3004   1.380       .  S
C2999      F3005   1.362       .  S
C3002      F3007   1.384       .  S
C3002      F3008   1.385       .  S
C3009      C3010   1.420       .  A
C3009      C3014   1.411       .  A
C3009      H3016   1.077       .  S
C3010      C3011   1.445       .  A
C3011      C3018   1.530       .  S
C3011      C3012   1.400       .  A
C3012      C3013   1.401       .  A
C3012      H3017   1.081       .  S
C3013      C3014   1.416       .  A
C3014      C3015   1.520       .  S
C3015      F3019   1.385       .  S
C3015      F3020   1.383       .  S
C3018      F3022   1.379       .  S
C3018      F3023   1.369       .  S
C3018      F3024   1.386       .  S
C3025      C3026   1.423       .  A
C3025      C3030   1.414       .  A
C3025      H3032   1.074       .  S
C3026      C3027   1.437       .  A
C3027      C3034   1.522       .  S
C3027      C3028   1.413       .  A
C3028      C3029   1.413       .  A
C3028      H3033   1.083       .  S
C3029      C3030   1.419       .  A
C3030      C3031   1.520       .  S
C3031      F3035   1.385       .  S
C3031      F3036   1.377       .  S
C3034      F3038   1.377       .  S
C3034      F3039   1.367       .  S
C3034      F3040   1.385       .  S
C3041      C3042   1.403       .  A
C3041      C3046   1.385       .  A
C3041      H3048   1.063       .  S
C3042      C3043   1.454       .  A
C3043      C3050   1.526       .  S
C3043      C3044   1.417       .  A
C3044      C3045   1.396       .  A
C3044      H3049   1.082       .  S
C3045      C3046   1.409       .  A
C3046      C3047   1.522       .  S
C3047      F3051   1.383       .  S
C3047      F3052   1.386       .  S
C3047      F3053   1.382       .  S
C3050      F3054   1.373       .  S
C3050      F3055   1.378       .  S
C3050      F3056   1.386       .  S
C3057      C3058   1.418       .  A
C3057      C3062   1.387       .  A
C3057      H3064   1.062       .  S
C3058      C3059   1.460       .  A
C3059      C3066   1.536       .  S
C3059      C3060   1.406       .  A
C3060      C3061   1.386       .  A
C3060      H3065   1.085       .  S
C3061      C3062   1.402       .  A
C3062      C3063   1.523       .  S
C3063      F3067   1.383       .  S
C3063      F3068   1.375       .  S
C3063      F3069   1.382       .  S
C3066      F3070   1.383       .  S
C3066      F3071   1.363       .  S
C3066      F3072   1.387       .  S
C3073      C3074   1.391       .  A
C3073      C3078   1.416       .  A
C3073      H3080   1.084       .  S
C3074      C3075   1.404       .  A
C3075      C3082   1.510       .  S
C3075      C3076   1.402       .  A
C3076      C3077   1.406       .  A
C3076      H3081   1.068       .  S
C3077      C3078   1.458       .  A
C3078      C3079   1.536       .  S
C3079      F3083   1.383       .  S
C3079      F3084   1.368       .  S
C3079      F3085   1.386       .  S
C3082      F3086   1.382       .  S
C3082      F3088   1.384       .  S
C3089      C3090   1.413       .  A
C3089      C3094   1.415       .  A
C3089      H3096   1.067       .  S
C3090      C3091   1.464       .  A
C3091      C3098   1.534       .  S
C3091      C3092   1.428       .  A
C3092      C3093   1.397       .  A
C3092      H3097   1.081       .  S
C3093      C3094   1.425       .  A
C3094      C3095   1.523       .  S
C3095      F3099   1.385       .  S
C3095      F3100   1.382       .  S
C3095      F3101   1.383       .  S
C3098      F3102   1.369       .  S
C3098      F3103   1.367       .  S
C3098      F3104   1.386       .  S
C3105      C3106   1.399       .  A
C3105      C3110   1.400       .  A
C3105      H3112   1.085       .  S
C3106      C3107   1.413       .  A
C3107      C3114   1.519       .  S
C3107      C3108   1.410       .  A
C3108      C3109   1.428       .  A
C3108      H3113   1.075       .  S
C3109      C3110   1.445       .  A
C3110      C3111   1.528       .  S
C3111      F3115   1.386       .  S
C3111      F3116   1.357       .  S
C3111      F3117   1.382       .  S
C3114      F3119   1.379       .  S
C3114      F3120   1.385       .  S
