geometry optimzed in LAMMPS
_audit_creation_date              2020-12-01 
_audit_creation_method            'lammps2cif' 
_symmetry_space_group_name_H-M    'P1' 
_symmetry_Int_Tables_number       1 
_symmetry_cell_setting            triclinic 
loop_ 
_symmetry_equiv_pos_as_xyz 
  x,y,z 
_cell_length_a                    56.70782006 
_cell_length_b                    56.7110333517488 
_cell_length_c                    30.5164621249237 
_cell_angle_alpha                 90.20154668530485 
_cell_angle_beta                  90.03251852542108 
_cell_angle_gamma                 131.01265788889924 
loop_ 
_atom_site_label 
_atom_site_type_symbol 
_atom_site_fract_x 
_atom_site_fract_y 
_atom_site_fract_z 
_atom_site_charge 
C1          C  0.34299567  0.14555589  0.90219653     0.86700
C2          C  0.36163138  0.18047724  0.91124775    -0.53600
C3          C  0.35077906  0.19267654  0.88952466     0.09600
C4          C  0.32310291  0.16941804  0.85819253     0.20500
C5          C  0.30890203  0.13011675  0.91125984    -0.54300
C6          C  0.29769150  0.14192209  0.88841261     0.09700
C7          C  0.34573877  0.14523753  0.85214115    -0.53800
C8          C  0.33505960  0.15703494  0.82823221     0.10300
H9          H  0.38207985  0.19506838  0.93213158     0.14800
H10         H  0.31543634  0.17993875  0.83950884     0.00500
H11         H  0.29552288  0.11238657  0.93631415     0.15100
H12         H  0.35741981  0.13790835  0.83772642     0.14900
C13         C  0.34740922  0.14950816  0.70463243     0.86700
C14         C  0.31284845  0.13239885  0.69579418    -0.53600
C15         C  0.30214519  0.14479424  0.71737456     0.09600
C16         C  0.32632952  0.17227083  0.74845262     0.20500
C17         C  0.36446150  0.18389811  0.69504226    -0.54300
C18         C  0.35419063  0.19661663  0.71788868     0.09700
C19         C  0.34768951  0.14696154  0.75476559    -0.53800
C20         C  0.33733943  0.15914307  0.77856415     0.10300
H21         H  0.29722583  0.11145670  0.67606342     0.14800
H22         H  0.31692543  0.18117166  0.76709377     0.00500
H23         H  0.38197381  0.19628236  0.66951972     0.15100
H24         H  0.35385682  0.13430468  0.76930020     0.14900
C25         C  0.12109957  0.36743888  0.20829077     0.86700
C26         C  0.15469387  0.38270585  0.19474375    -0.53600
C27         C  0.16765278  0.37248594  0.21695782     0.09600
C28         C  0.14487284  0.34704880  0.25123996     0.20500
C29         C  0.10262322  0.33246750  0.20306521    -0.54300
C30         C  0.11504596  0.32174543  0.22430070     0.09700
C31         C  0.12482348  0.37369744  0.25798525    -0.53800
C32         C  0.13616077  0.36232015  0.28148994     0.10300
H33         H  0.16781124  0.40065024  0.17035159     0.14800
H34         H  0.15408918  0.33790257  0.26967589     0.00500
H35         H  0.08237639  0.31766645  0.18163430     0.15100
H36         H  0.11949453  0.38717158  0.27237969     0.14900
C37         C  0.13666528  0.38191887  0.40432037     0.86700
C38         C  0.12082537  0.34827592  0.41844220    -0.53600
C39         C  0.13014360  0.33450777  0.39584119     0.09600
C40         C  0.15534298  0.35672540  0.36077538     0.20500
C41         C  0.17162614  0.39983588  0.40858410    -0.54300
C42         C  0.18151021  0.38653452  0.38730563     0.09700
C43         C  0.12948064  0.37760273  0.35500938    -0.53800
C44         C  0.14020414  0.36592296  0.33102336     0.10300
H45         H  0.10347275  0.33613961  0.44402502     0.14800
H46         H  0.16372789  0.34684657  0.34197496     0.00500
H47         H  0.18688993  0.42006761  0.42992403     0.15100
H48         H  0.11532974  0.38220812  0.34112413     0.14900
Zr49       Zr  0.00842631  0.48911527  0.01307403     2.17500
O50         O  0.01826597  0.47768356  0.94167065    -0.51200
O51         O  0.02997692  0.47034113  0.05545010    -0.74400
O52         O  0.06248586  0.02680929  0.99239912    -0.81100
O53         O  0.42200754  0.41008892  0.00454816    -0.82900
O54         O  0.08316672  0.07299969  0.02532748    -0.78500
O55         O  0.47171780  0.43102940  0.98875471    -0.90100
O56         O  0.01988751  0.47012903  0.12736539    -0.76100
O57         O  0.03089509  0.01862888  0.07835109    -0.85600
O58         O  0.46937427  0.45664141  0.06723413    -0.85300
O59         O  0.01905274  0.03640818  0.99749799    -0.72000
O60         O  0.46265034  0.47821102  0.98636052    -0.84200
Zr61       Zr  0.45763996  0.02703391  0.09919783     2.26400
Zr62       Zr  0.04131760  0.06617692  0.06418798     2.06300
Zr63       Zr  0.42476814  0.44929839  0.04321492     2.10000
Zr64       Zr  0.49147805  0.98694241  0.13826397     1.78800
O65         O  0.38772109  0.43103011  0.98359077    -0.93000
O66         O  0.03472383  0.02229041  0.18630340    -0.40800
O67         O  0.44650078  0.47923571  0.10970767    -0.77400
O68         O  0.00334389  0.03747952  0.12139656    -0.96100
O69         O  0.49685206  0.05743746  0.04455274    -0.89400
O70         O  0.43558648  0.99700842  0.03333931    -0.92300
C71         C  0.03119626  0.46502492  0.09601179     1.01500
C72         C  0.44191964  0.40839410  0.98919986     1.14400
C73         C  0.08524983  0.05580109  0.00110263     1.05200
O74         O  0.07920786  0.08413250  0.12243084    -0.94400
O75         O  0.04398239  0.10522751  0.10426775    -0.90200
O76         O  0.49302674  0.08087870  0.12522374    -0.83300
C77         C  0.02418037  0.10660062  0.12139023     1.11800
O78         O  0.49020893  0.02725609  0.90461698    -0.96400
Zr79       Zr  0.47492639  0.02722230  0.97923002     1.88900
O80         O  0.43831288  0.04815057  0.05783238    -0.73000
O81         O  0.07517663  0.11549671  0.02474974    -0.52300
O82         O  0.01055795  0.08303631  0.94740281    -0.97000
O83         O  0.42908265  0.49522037  0.92203668    -0.54200
O84         O  0.44975672  0.04914585  0.98631346    -0.73600
C85         C  0.43828102  0.05429711  0.01732588     0.98800
O86         O  0.44194468  0.03187609  0.17071701    -0.62400
O87         O  0.39210909  0.39942000  0.08139862    -0.57200
O88         O  0.40280811  0.98732573  0.11961917    -0.93900
O89         O  0.38232894  0.44218964  0.07969207    -0.92300
O90         O  0.45487883  0.43440255  0.15990945    -0.92600
O91         O  0.47048421  0.98306618  0.21007654    -0.91400
C92         C  0.38002790  0.45926031  0.10362889     1.17600
H93         H  0.46412867  0.43684867  0.07195306     0.33600
H94         H  0.01128392  0.04958578  0.14822831     0.44400
H95         H  0.41576996  0.49201836  0.02128304     0.38000
H96         H  0.03407114  0.04731455  0.97402152     0.34400
H97         H  0.03366364  0.00744239  0.20515691     0.26200
H98         H  0.06304575  0.12234635  0.02228790     0.32200
H99         H  0.53210311  0.08919456  0.96396536     0.38100
H100        H  0.46721517  0.43274219  0.18051707     0.32500
H101        H  0.39236278  0.40473574  0.11243026     0.31400
H102        H  0.36734346  0.41260226  0.99559215     0.33100
H103        H  0.41446007  0.99401499  0.94088491     0.32100
H104        H  0.47356915  0.00233468  0.21289507     0.36100
H105        H  0.46076701  0.04311710  0.18957551     0.28800
H106        H  0.03510839  0.47706001  0.94668830     0.33000
H107        H  0.50759824  0.02729413  0.90790639     0.35900
H108        H  0.37054329  0.38844643  0.07111114     0.28500
H109        H  0.43853204  0.04674875  0.16642824     0.41400
H110        H  0.09983178  0.09952240  0.10827285     0.31400
H111        H  0.05395628  0.03272953  0.16887915     0.39000
H112        H  0.41021680  0.48363140  0.94062457     0.30900
H113        H  0.09225625  0.13046507  0.04562001     0.30900
H114        H  0.02248381  0.99475477  0.92196982     0.31200
Zr115      Zr  0.01417445  0.49225683  0.59992302     2.17500
O116        O  0.03027566  0.48160824  0.66562637    -0.51200
O117        O  0.03634536  0.47405291  0.55837168    -0.74400
O118        O  0.47554794  0.43618390  0.62204762    -0.81100
O119        O  0.08691211  0.07522204  0.60810304    -0.82900
O120        O  0.42929701  0.41542215  0.58989452    -0.78500
O121        O  0.06280763  0.02566653  0.62949377    -0.90100
O122        O  0.03232847  0.47904709  0.48553649    -0.76100
O123        O  0.48201304  0.46688599  0.53751685    -0.85600
O124        O  0.04242058  0.02959507  0.54062117    -0.85300
O125        O  0.46725640  0.48105094  0.61968185    -0.72000
O126        O  0.02035649  0.03672964  0.62058070    -0.84200
Zr127      Zr  0.47228582  0.04040377  0.51327666     2.26400
Zr128      Zr  0.43545953  0.45779434  0.55473305     2.06300
Zr129      Zr  0.05040636  0.07460127  0.56405764     2.10000
Zr130      Zr  0.51005107  0.50334107  0.47960976     1.78800
O131        O  0.07219197  0.11614882  0.61779604    -0.93000
O132        O  0.47696425  0.45439202  0.43839119    -0.40800
O133        O  0.02088004  0.05323908  0.49733477    -0.77400
O134        O  0.46282124  0.49362467  0.49481960    -0.96100
O135        O  0.44306515  0.00389241  0.57100219    -0.89400
O136        O  0.50412756  0.06426811  0.57723576    -0.92300
C137        C  0.04038100  0.47131897  0.51791833     1.01500
C138        C  0.08645503  0.05502402  0.62836960     1.14400
C139        C  0.44660591  0.41317312  0.61330098     1.05200
O140        O  0.40916785  0.41425192  0.50333582    -0.94400
O141        O  0.39630973  0.45464776  0.51421791    -0.90200
O142        O  0.41868034  0.00460180  0.48634176    -0.83300
C143        C  0.39499194  0.47408133  0.49556347     1.11800
O144        O  0.48164176  0.01829712  0.70955134    -0.96400
Zr145      Zr  0.47485821  0.02757421  0.63460657     1.88900
O146        O  0.44953442  0.05831699  0.55364784    -0.73000
O147        O  0.38996065  0.43079154  0.60214152    -0.52300
O148        O  0.42726800  0.49229648  0.67794073    -0.97000
O149        O  0.00004246  0.07135983  0.68193497    -0.54200
O150        O  0.44851892  0.04801504  0.62580157    -0.73600
C151        C  0.44251253  0.05800436  0.59378554     0.98800
O152        O  0.46809072  0.05560121  0.44096030    -0.62400
O153        O  0.09866895  0.10324803  0.52233516    -0.57200
O154        O  0.51128369  0.09520329  0.49307662    -0.93900
O155        O  0.05818444  0.11732147  0.52695286    -0.92300
O156        O  0.06339573  0.04476308  0.43980182    -0.92600
O157        O  0.50676073  0.01567030  0.40118936    -0.91400
C158        C  0.04130423  0.12024881  0.50374258     1.17600
H159        H  0.06228988  0.03474855  0.53739339     0.33600
H160        H  0.44985543  0.48496793  0.46884348     0.44400
H161        H  0.00753898  0.08365009  0.58558987     0.38000
H162        H  0.45692846  0.46666564  0.64396776     0.34400
H163        H  0.49148305  0.45521490  0.41899592     0.26200
H164        H  0.37485342  0.40938842  0.58980812     0.32200
H165        H  0.42509823  0.00327420  0.69456518     0.38100
H166        H  0.07861694  0.04798437  0.46078334     0.32500
H167        H  0.09321355  0.10533870  0.49262223     0.31400
H168        H  0.09431721  0.13253601  0.60908164     0.33100
H169        H  0.50460759  0.08954171  0.66428081     0.32100
H170        H  0.48095097  0.49981108  0.40018943     0.36100
H171        H  0.45986000  0.03760742  0.42154386     0.28800
H172        H  0.02550858  0.46160168  0.66049550     0.33000
H173        H  0.49864368  0.01764705  0.70777693     0.35900
H174        H  0.11240993  0.12468414  0.53469366     0.28500
H175        H  0.45098268  0.05607771  0.44314322     0.41400
H176        H  0.38816811  0.39798843  0.51605086     0.31400
H177        H  0.47007720  0.43800395  0.46003117     0.39000
H178        H  0.02133348  0.07864515  0.68462417     0.30900
H179        H  0.39665226  0.42820084  0.63034723     0.30900
H180        H  0.51440211  0.47829917  0.69126636     0.31200
C181        C  0.31839569  0.42090859  0.43041395    -0.05300
C182        C  0.30563164  0.43508860  0.43837310     0.08900
C183        C  0.32296176  0.46299998  0.46311296    -0.02700
C184        C  0.35211639  0.47587440  0.48163569    -0.00900
C185        C  0.36472896  0.46132985  0.47462551    -0.04500
C186        C  0.34802344  0.43425655  0.44773759     0.02500
C187        C  0.27328730  0.42011731  0.42279643     0.09300
C188        C  0.31042360  0.47827364  0.46985464     0.35200
C189        C  0.36181580  0.42075652  0.43623763     0.38600
C190        C  0.24745608  0.39926529  0.45045317    -0.04900
C191        C  0.21755736  0.38824539  0.43884922     0.02200
C192        C  0.21274758  0.39649717  0.39815067    -0.04500
C193        C  0.23845350  0.41670944  0.37014269    -0.00700
C194        C  0.26872346  0.42908563  0.38276719    -0.03300
C195        C  0.25193331  0.38996464  0.49166726     0.36000
C196        C  0.23393882  0.42628338  0.32958409     0.39600
C197        C  0.19184625  0.36865488  0.46922770     0.38700
C198        C  0.29549312  0.45265250  0.35608183     0.35600
C199        C  0.30099171  0.39242848  0.40459574     0.36300
C200        C  0.36836769  0.50347552  0.50920983     0.39600
N201        N  0.17153339  0.35299997  0.49375236    -0.38500
N202        N  0.25554159  0.38252582  0.52449157    -0.40100
N203        N  0.23002512  0.43406105  0.29753595    -0.37800
N204        N  0.31695008  0.47192752  0.33526284    -0.40200
N205        N  0.30030255  0.49036907  0.47483192    -0.40000
N206        N  0.38099902  0.52549110  0.53112326    -0.37600
N207        N  0.36873566  0.90823972  0.42566659    -0.38700
N208        N  0.28738852  0.36964547  0.38415421    -0.40300
C209        C  0.10299670  0.40425193  0.49043088    -0.05300
C210        C  0.10150903  0.42418244  0.46565086     0.08900
C211        C  0.11643382  0.43467080  0.42461552    -0.02700
C212        C  0.13059293  0.42349733  0.40717841    -0.00900
C213        C  0.12710207  0.39891663  0.42829011    -0.04500
C214        C  0.11662400  0.39250945  0.47253108     0.02500
C215        C  0.08563171  0.43549083  0.48329507     0.09300
C216        C  0.11734225  0.45722077  0.40027614     0.35200
C217        C  0.12315406  0.37728630  0.50163972     0.38600
C218        C  0.10353649  0.46672551  0.49788792    -0.04900
C219        C  0.08874800  0.47844943  0.50921056     0.02200
C220        C  0.05584019  0.45869455  0.50772635    -0.04500
C221        C  0.03784585  0.42718948  0.49482960    -0.00700
C222        C  0.05267532  0.41567197  0.48238302    -0.03300
C223        C  0.13730847  0.48704941  0.50029169     0.36000
C224        C  0.00403273  0.40678475  0.49353983     0.39600
C225        C  0.10756969  0.51126918  0.52032240     0.38700
C226        C  0.03401426  0.38362409  0.46741284     0.35600
C227        C  0.09117645  0.39652372  0.53491698     0.36300
C228        C  0.15052710  0.43914597  0.36908564     0.39600
N229        N  0.12509212  0.04187012  0.51328121    -0.38500
N230        N  0.16426722  0.50338449  0.50210546    -0.40100
N231        N  0.47619793  0.38846215  0.50604599    -0.37800
N232        N  0.01900442  0.35802031  0.45549109    -0.40200
N233        N  0.11813988  0.47532140  0.38115449    -0.40000
N234        N  0.16642852  0.45176891  0.33876932    -0.37600
N235        N  0.12859085  0.36552273  0.52540476    -0.38700
N236        N  0.08176335  0.39046007  0.57041893    -0.40300
C237        C  0.08065110  0.20635621  0.49833719    -0.05300
C238        C  0.08083213  0.21064281  0.45280146     0.08900
C239        C  0.07032297  0.18597622  0.42383504    -0.02700
C240        C  0.05752335  0.15645100  0.44041523    -0.00900
C241        C  0.05631870  0.15177605  0.48615792    -0.04500
C242        C  0.06911344  0.17726902  0.51494412     0.02500
C243        C  0.09305135  0.24159774  0.43537598     0.09300
C244        C  0.07374590  0.19146377  0.37699275     0.35200
C245        C  0.07034952  0.17369013  0.56170192     0.38600
C246        C  0.12474541  0.26462365  0.42423512    -0.04900
C247        C  0.13661958  0.29406964  0.40845683     0.02200
C248        C  0.11709327  0.30161587  0.40607329    -0.04500
C249        C  0.08470965  0.27748289  0.41578760    -0.03700
C250        C  0.07291343  0.24775918  0.42992209    -0.03300
C251        C  0.14515655  0.25773298  0.42929902     0.36000
C252        C  0.06274668  0.28224527  0.40906812     0.39600
C253        C  0.16879645  0.31557505  0.39409404     0.38700
C254        C  0.03978758  0.22315565  0.43849422     0.35600
C255        C  0.09266508  0.23213705  0.52798873     0.36300
C256        C  0.04680227  0.13125619  0.41032731     0.39600
N257        N  0.19432031  0.33137518  0.38178146    -0.38500
N258        N  0.16108797  0.25186224  0.43361255    -0.40100
N259        N  0.04517020  0.28591763  0.40331605    -0.37800
N260        N  0.01335633  0.20341413  0.44503718    -0.40200
N261        N  0.07713363  0.19626833  0.33971823    -0.40000
N262        N  0.53654087  0.10615966  0.38377364    -0.37600
N263        N  0.07180441  0.17125836  0.59902779    -0.38700
N264        N  0.10232168  0.25286023  0.55136910    -0.40300
C265        C  0.07417626  0.18262116  0.18795431    -0.05300
C266        C  0.06132272  0.19600826  0.17522480     0.08900
C267        C  0.03527382  0.17938188  0.14686771    -0.02700
C268        C  0.02307585  0.15019019  0.12948374    -0.00900
C269        C  0.03641872  0.13695236  0.14111666    -0.04500
C270        C  0.06179313  0.15320067  0.17107378     0.02500
C271        C  0.07642996  0.22854189  0.18934370     0.09300
C272        C  0.02116425  0.19255144  0.13536113     0.35200
C273        C  0.07495449  0.13955203  0.18521297     0.38600
C274        C  0.09815800  0.25388846  0.16149916    -0.04900
C275        C  0.11131000  0.28444302  0.17336086     0.02200
C276        C  0.10361501  0.29002197  0.21392817    -0.04500
C277        C  0.08236366  0.26475473  0.24198393    -0.00700
C278        C  0.06847165  0.23402664  0.22958011    -0.03300
C279        C  0.10658859  0.24834616  0.12027249     0.36000
C280        C  0.07368905  0.27035099  0.28260311     0.39600
C281        C  0.13289471  0.31017313  0.14381477     0.38700
C282        C  0.04504788  0.20790770  0.25728007     0.35600
C283        C  0.10030639  0.19935685  0.21834683     0.36300
C284        C  0.99778792  0.13476985  0.09786639     0.39600
N285        N  0.15031069  0.33068019  0.12035543    -0.38500
N286        N  0.11323670  0.24379688  0.08743198    -0.40100
N287        N  0.06668434  0.27514333  0.31471508    -0.37800
N288        N  0.02613270  0.18704851  0.27921809    -0.40200
N289        N  0.00981725  0.20298456  0.12640835    -0.40000
N290        N  0.48013936  0.12141962  0.06708747    -0.37600
N291        N  0.08559183  0.12883322  0.19672202    -0.38700
N292        N  0.12108061  0.21282456  0.24273456    -0.40300
C293        C  0.29446685  0.42153609  0.11052006    -0.05300
C294        C  0.29000302  0.41964627  0.15631146     0.08900
C295        C  0.31480949  0.42968646  0.18463978    -0.02700
C296        C  0.34402145  0.44203149  0.16734711    -0.00900
C297        C  0.34873315  0.44462748  0.12158826    -0.04500
C298        C  0.32363326  0.43371620  0.09318583     0.02500
C299        C  0.25934428  0.40774984  0.17467453     0.09300
C300        C  0.31031513  0.42744389  0.23165328     0.35200
C301        C  0.32806219  0.43585037  0.04609311     0.38600
C302        C  0.23626897  0.37623334  0.18687812    -0.04900
C303        C  0.20718905  0.36491476  0.20361286     0.02200
C304        C  0.20031057  0.38495535  0.20673116    -0.04500
C305        C  0.22464053  0.41718985  0.19656446    -0.00700
C306        C  0.25358246  0.42821381  0.18008206    -0.03300
C307        C  0.24227084  0.35516650  0.18094425     0.36000
C308        C  0.22092206  0.43980499  0.20510107     0.39600
C309        C  0.18511635  0.33262802  0.21749644     0.38700
C310        C  0.27751310  0.46076957  0.16785770     0.35600
C311        C  0.26908927  0.41131358  0.08128163     0.36300
C312        C  0.36899049  0.45108384  0.19656982     0.39600
N313        N  0.16861286  0.30692348  0.22913161    -0.38500
N314        N  0.24698169  0.33833591  0.17594812    -0.40100
N315        N  0.21804122  0.45784813  0.21231990    -0.37800
N316        N  0.29657737  0.48665625  0.15778143    -0.40200
N317        N  0.30685466  0.42558450  0.26921951    -0.40000
N318        N  0.38891732  0.45808906  0.21966346    -0.37600
N319        N  0.33158633  0.43759753  0.00852165    -0.38700
N320        N  0.24885063  0.40323453  0.05798288    -0.40300
C321        C  0.07250727  0.44343553  0.16181765    -0.05300
C322        C  0.06608083  0.41896265  0.13630510     0.08900
C323        C  0.04995863  0.41101682  0.09614830    -0.02700
C324        C  0.04115821  0.42787846  0.08103629    -0.00900
C325        C  0.04570407  0.45112830  0.10784926    -0.04500
C326        C  0.06250699  0.45942762  0.14777520     0.02500
C327        C  0.07762317  0.40264029  0.15103262     0.09300
C328        C  0.04152177  0.38472001  0.07082363     0.35200
C329        C  0.07688578  0.99134487  0.16697389     0.38600
C330        C  0.06377876  0.38207367  0.18693653    -0.04900
C331        C  0.07679457  0.36948417  0.20365122     0.02200
C332        C  0.10435951  0.37753200  0.18485976    -0.04500
C333        C  0.11417056  0.39343616  0.14387247    -0.00700
C334        C  0.10227056  0.40747007  0.12880917    -0.03300
C335        C  0.03582916  0.37369273  0.20644635     0.36000
C336        C  0.13286662  0.39202079  0.11359253     0.39600
C337        C  0.06102320  0.34754733  0.23971958     0.38700
C338        C  0.11528051  0.42675834  0.08981100     0.35600
C339        C  0.08939491  0.45210078  0.20291801     0.36300
C340        C  0.02810176  0.42141479  0.03731117     0.39600
N341        N  0.04857062  0.33017293  0.26860421    -0.38500
N342        N  0.01348821  0.36704347  0.22172289    -0.40100
N343        N  0.14748656  0.39098643  0.08852053    -0.37800
N344        N  0.12545845  0.44198235  0.05857827    -0.40200
N345        N  0.03455682  0.36364216  0.05063825    -0.40000
N346        N  0.51437081  0.40877302  0.00595780    -0.37600
N347        N  0.08695732  0.01472115  0.18347211    -0.38700
N348        N  0.10261576  0.45877292  0.23585434    -0.40300
C349        C  0.38472662  0.06453414  0.64189511    -0.05300
C350        C  0.39747054  0.09446026  0.62753602     0.08900
C351        C  0.42381231  0.11156027  0.59982867    -0.02700
C352        C  0.43818974  0.09947213  0.58807761    -0.00900
C353        C  0.42635197  0.07008941  0.60407088    -0.04500
C354        C  0.39899214  0.05231637  0.63009263     0.02500
C355        C  0.38523965  0.10943017  0.64504121     0.09300
C356        C  0.43665044  0.14211524  0.58445005     0.35200
C357        C  0.38487626  0.02100597  0.64365887     0.38600
C358        C  0.39965594  0.12915811  0.68190070    -0.04900
C359        C  0.38952919  0.14457596  0.69793376     0.02200
C360        C  0.36227356  0.13777253  0.68031995    -0.04500
C361        C  0.35046689  0.12089550  0.63983197    -0.00700
C362        C  0.36134312  0.10614192  0.62318875    -0.03300
C363        C  0.42497133  0.13333112  0.70364116     0.36000
C364        C  0.32989471  0.12130701  0.61234643     0.39600
C365        C  0.40833151  0.16835956  0.73152914     0.38700
C366        C  0.34826596  0.08777505  0.58313511     0.35600
C367        C  0.35720539  0.04654262  0.66949032     0.36300
C368        C  0.46593459  0.11794087  0.56089974     0.39600
N369        N  0.42348124  0.18712219  0.75847401    -0.38500
N370        N  0.44494937  0.13625865  0.72086237    -0.40100
N371        N  0.31354600  0.12154670  0.59000440    -0.37800
N372        N  0.33796491  0.07305863  0.55123070    -0.40200
N373        N  0.44687210  0.16650776  0.57227868    -0.40000
N374        N  0.48802365  0.13264478  0.53913881    -0.37600
N375        N  0.37343673  0.99594113  0.65426718    -0.38700
N376        N  0.33523713  0.03210202  0.69149683    -0.40300
C377        C  0.41217517  0.28414415  0.68737620    -0.05300
C378        C  0.39264812  0.29121360  0.68437485     0.08900
C379        C  0.36103830  0.26841795  0.69628527    -0.02700
C380        C  0.34833405  0.23792190  0.70821594    -0.00900
C381        C  0.36758495  0.22997837  0.70988001    -0.04500
C382        C  0.40012182  0.25425710  0.70113856     0.02500
C383        C  0.40524573  0.32234930  0.66677662     0.09300
C384        C  0.34137084  0.27638667  0.69560569     0.35200
C385        C  0.42191127  0.24918958  0.70672300     0.38600
C386        C  0.40082848  0.32526041  0.62225761    -0.04900
C387        C  0.41397347  0.35472032  0.60486403     0.02200
C388        C  0.43209663  0.38181843  0.63179126    -0.04500
C389        C  0.43600072  0.37865368  0.67667031    -0.00700
C390        C  0.42231479  0.34904074  0.69405007    -0.03300
C391        C  0.38276112  0.29776585  0.59425118     0.36000
C392        C  0.45307774  0.40553871  0.70578149     0.39600
C393        C  0.40947080  0.35703032  0.55880591     0.38700
C394        C  0.42508110  0.34589755  0.74043290     0.35600
C395        C  0.44480652  0.30764187  0.67511387     0.36300
C396        C  0.31518649  0.21531369  0.71730294     0.39600
N397        N  0.40564977  0.35849866  0.52200542    -0.38500
N398        N  0.36824087  0.27575944  0.57205257    -0.40100
N399        N  0.46645257  0.42654862  0.72978784    -0.37800
N400        N  0.42717559  0.34369468  0.77760718    -0.40200
N401        N  0.32563702  0.28266055  0.69526039    -0.40000
N402        N  0.28871570  0.19859293  0.72487658    -0.37600
N403        N  0.43948795  0.24535410  0.71058462    -0.38700
N404        N  0.47077029  0.32633891  0.66510465    -0.40300
C405        C  0.23210844  0.12865149  0.66468237    -0.05300
C406        C  0.20816794  0.10730551  0.69461535     0.08900
C407        C  0.21517296  0.09809353  0.73186648    -0.02700
C408        C  0.24606094  0.11069204  0.73943686    -0.00900
C409        C  0.26995224  0.13245775  0.71008488    -0.04500
C410        C  0.26272254  0.14044932  0.67173025     0.02500
C411        C  0.17513787  0.09189352  0.68356968     0.09300
C412        C  0.19048391  0.07462019  0.76123117     0.35200
C413        C  0.28656806  0.15999382  0.63882927     0.38600
C414        C  0.15606260  0.06268422  0.66205618    -0.04900
C415        C  0.12617946  0.04952130  0.64664644     0.02200
C416        C  0.11564792  0.06625704  0.65090981    -0.04500
C417        C  0.13400515  0.09451531  0.67524965    -0.00700
C418        C  0.16366633  0.10729554  0.69141581    -0.03300
C419        C  0.16779299  0.04670788  0.65426485     0.36000
C420        C  0.12185198  0.10979140  0.68540248     0.39600
C421        C  0.10678654  0.01888311  0.62609424     0.38700
C422        C  0.18259528  0.13651462  0.71567736     0.35600
C423        C  0.22503496  0.13780481  0.62593597     0.36300
C424        C  0.25303104  0.09908497  0.77469814     0.39600
N425        N  0.09060155  0.49353353  0.62118671    -0.38500
N426        N  0.17722194  0.03406512  0.64795639    -0.40100
N427        N  0.11206785  0.12182528  0.69405240    -0.37800
N428        N  0.19755937  0.15980954  0.73509772    -0.40200
N429        N  0.17099244  0.05560879  0.78468819    -0.40000
N430        N  0.25943577  0.08974536  0.80146999    -0.37600
N431        N  0.30546391  0.17526597  0.61234502    -0.38700
N432        N  0.21949578  0.14525168  0.59509650    -0.40300
C433        C  0.42418353  0.10439179  0.96030585    -0.05300
C434        C  0.39571387  0.09305373  0.97906894     0.08900
C435        C  0.38144521  0.06942874  0.01103781    -0.02700
C436        C  0.39550987  0.05722712  0.02435520    -0.00900
C437        C  0.42396721  0.06823544  0.00519005    -0.04500
C438        C  0.43837092  0.09230489  0.97341135     0.02500
C439        C  0.37969352  0.10454978  0.96286933     0.09300
C440        C  0.35145279  0.05677947  0.02877170     0.35200
C441        C  0.46835806  0.10549060  0.95490160     0.38600
C442        C  0.35927165  0.08987786  0.92674313    -0.04900
C443        C  0.34535534  0.10141488  0.90964934     0.02200
C444        C  0.35319168  0.12929630  0.92690448    -0.04500
C445        C  0.36945044  0.14036310  0.96786182    -0.00700
C446        C  0.38352539  0.12881967  0.98466092    -0.03300
C447        C  0.35226523  0.06239368  0.90762558     0.36000
C448        C  0.36898005  0.16083922  0.99559733     0.39600
C449        C  0.32209555  0.08349755  0.87526127     0.38700
C450        C  0.40142550  0.14136929  0.02511717     0.35600
C451        C  0.43847485  0.12808226  0.92655555     0.36300
C452        C  0.37983160  0.03250027  0.05665855     0.39600
N453        N  0.30378176  0.06904708  0.84760616    -0.38500
N454        N  0.34678755  0.04041074  0.89293745    -0.40100
N455        N  0.36860988  0.17702538  0.01821491    -0.37800
N456        N  0.41558577  0.15117568  0.05749643    -0.40200
N457        N  0.32738880  0.04670727  0.04233126    -0.40000
N458        N  0.36717454  0.01289810  0.08263637    -0.37600
N459        N  0.49232558  0.11616145  0.94015320    -0.38700
N460        N  0.44963747  0.14682571  0.89943430    -0.40300
C461        C  0.40210048  0.28108853  0.88930012    -0.05300
C462        C  0.39027116  0.28584040  0.92585342     0.08900
C463        C  0.36475073  0.25970196  0.94936773    -0.02700
C464        C  0.35202295  0.22933179  0.93746940    -0.00900
C465        C  0.36308700  0.22459062  0.90001044    -0.04500
C466        C  0.38803487  0.25047317  0.87586206     0.02500
C467        C  0.40508904  0.31823688  0.94074106     0.09300
C468        C  0.35187355  0.26406282  0.98637900     0.35200
C469        C  0.40014521  0.24549432  0.83856401     0.38600
C470        C  0.40079056  0.33634538  0.91638843    -0.04900
C471        C  0.41280379  0.36585638  0.93220518     0.02200
C472        C  0.42950713  0.37761267  0.97214336    -0.04500
C473        C  0.43312344  0.35923766  0.99702916    -0.00700
C474        C  0.42162326  0.33000975  0.98095386    -0.03300
C475        C  0.38342846  0.32434277  0.87549189     0.36000
C476        C  0.44663263  0.36938139  0.04067255     0.39600
C477        C  0.40709096  0.38370273  0.90813942     0.38700
C478        C  0.42629638  0.31174777  0.00628647     0.35600
C479        C  0.42973686  0.30764938  0.86697862     0.36300
C480        C  0.32782741  0.20291921  0.96429377     0.39600
N481        N  0.40222235  0.39777751  0.88920847    -0.38500
N482        N  0.36970791  0.31490630  0.84274407    -0.40100
N483        N  0.45701259  0.37724786  0.07570588    -0.37800
N484        N  0.42985364  0.29711845  0.02667845    -0.40200
N485        N  0.34168067  0.26749033  0.01606325    -0.40000
N486        N  0.30850090  0.18181391  0.98556211    -0.37600
N487        N  0.40973232  0.24118520  0.80908955    -0.38700
N488        N  0.45204844  0.32872091  0.84936286    -0.40300
C489        C  0.20990951  0.08675982  0.91743147    -0.05300
C490        C  0.20502003  0.10773086  0.92487185     0.08900
C491        C  0.22883731  0.13941425  0.91413860    -0.02700
C492        C  0.25828101  0.15057461  0.89893267    -0.00900
C493        C  0.26481267  0.13013937  0.89621894    -0.04500
C494        C  0.23941091  0.09768918  0.90371257     0.02500
C495        C  0.17466057  0.09614467  0.94440451     0.09300
C496        C  0.22275532  0.16051311  0.91864284     0.35200
C497        C  0.24283007  0.07481684  0.89612687     0.38600
C498        C  0.17060700  0.09349993  0.99037686    -0.04900
C499        C  0.14167598  0.08118035  0.00890633     0.02200
C500        C  0.11617637  0.07038189  0.98160117    -0.04500
C501        C  0.12002871  0.07249565  0.93559312    -0.00700
C502        C  0.14931688  0.08590683  0.91714486    -0.03300
C503        C  0.19591424  0.10242717  0.01863286     0.36000
C504        C  0.09378928  0.06066128  0.90708670     0.39600
C505        C  0.13762944  0.07808463  0.05609105     0.38700
C506        C  0.15325450  0.08884378  0.87000905     0.35600
C507        C  0.18405529  0.05356139  0.92328519     0.36300
C508        C  0.28090449  0.18305277  0.88613714     0.39600
N509        N  0.13427710  0.07545716  0.09369615    -0.38500
N510        N  0.21590333  0.10919195  0.04134673    -0.40100
N511        N  0.07291241  0.05105664  0.88412208    -0.37800
N512        N  0.15616769  0.09130983  0.83235308    -0.40200
N513        N  0.21768222  0.17715177  0.92208850    -0.40000
N514        N  0.29774417  0.20898930  0.87551100    -0.37600
N515        N  0.24543592  0.05645443  0.89025565    -0.38700
N516        N  0.16318813  0.02710781  0.92747320    -0.40300
C517        C  0.34411641  0.64787618  0.90486274     0.86700
C518        C  0.36265351  0.68284704  0.91346074    -0.53600
C519        C  0.35177630  0.69479528  0.89118343     0.09600
C520        C  0.32421283  0.67123388  0.85989444     0.20500
C521        C  0.30991132  0.63225124  0.91346350    -0.54300
C522        C  0.29867009  0.64380454  0.89011557     0.09700
C523        C  0.34704910  0.64723297  0.85488727    -0.53800
C524        C  0.33634936  0.65880658  0.83055366     0.10300
H525        H  0.38321769  0.69777640  0.93401246     0.14800
H526        H  0.31668498  0.68162050  0.84069436     0.00500
H527        H  0.29648547  0.61457596  0.93856758     0.15100
H528        H  0.35850116  0.63953412  0.84082482     0.14900
C529        C  0.35126090  0.65373391  0.70725856     0.86700
C530        C  0.31692375  0.63661454  0.69636650    -0.53600
C531        C  0.30517953  0.64784336  0.71838853     0.09600
C532        C  0.32822074  0.67442071  0.75116798     0.20500
C533        C  0.36832443  0.68845939  0.69984194    -0.54300
C534        C  0.35669258  0.69993260  0.72251121     0.09700
C535        C  0.35003474  0.64959265  0.75728764    -0.53800
C536        C  0.33890071  0.66098322  0.78104231     0.10300
H537        H  0.30219112  0.61649877  0.67491087     0.14800
H538        H  0.31796215  0.68232027  0.76991581     0.00500
H539        H  0.38677834  0.70198460  0.67574093     0.15100
H540        H  0.35644866  0.63712869  0.77180355     0.14900
C541        C  0.12214854  0.86814312  0.21384185     0.86700
C542        C  0.15543713  0.88221489  0.20033334    -0.53600
C543        C  0.16744489  0.87101321  0.22260533     0.09600
C544        C  0.14381410  0.84543541  0.25634651     0.20500
C545        C  0.10239002  0.83290755  0.20834604    -0.54300
C546        C  0.11368501  0.82095413  0.22938497     0.09700
C547        C  0.12611838  0.87423839  0.26345189    -0.53800
C548        C  0.13583308  0.86126751  0.28665718     0.10300
H549        H  0.16923731  0.90037466  0.17638384     0.14800
H550        H  0.15216865  0.83534116  0.27456384     0.00500
H551        H  0.08221440  0.81884903  0.18666995     0.15100
H552        H  0.12212636  0.88871982  0.27824887     0.14900
C553        C  0.13401345  0.87884403  0.40915180     0.86700
C554        C  0.11912135  0.84557629  0.42365239    -0.53600
C555        C  0.12895322  0.83236438  0.40064001     0.09600
C556        C  0.15397680  0.85490241  0.36561314     0.20500
C557        C  0.16910741  0.89758863  0.41320286    -0.54300
C558        C  0.17954839  0.88491968  0.39185419     0.09700
C559        C  0.12646129  0.87387903  0.35993946    -0.53800
C560        C  0.13839640  0.86345032  0.33606292     0.10300
H561        H  0.10186334  0.83316556  0.44929482     0.14800
H562        H  0.16297546  0.84572334  0.34659075     0.00500
H563        H  0.18417715  0.91810372  0.43412388     0.15100
H564        H  0.11150301  0.87744658  0.34585270     0.14900
Zr565      Zr  0.00767394  0.98808204  0.01304570     2.17500
O566        O  0.01555303  0.97674481  0.94004767    -0.51200
O567        O  0.02840747  0.96793382  0.05463107    -0.74400
O568        O  0.06340882  0.52848959  0.99269910    -0.81100
O569        O  0.42269949  0.91143142  0.00682756    -0.82900
O570        O  0.08358222  0.57407524  0.02698891    -0.78500
O571        O  0.47257392  0.93218898  0.99311628    -0.90100
O572        O  0.02105880  0.97104963  0.12675679    -0.76100
O573        O  0.03084706  0.51916160  0.07864300    -0.85600
O574        O  0.46961624  0.95682757  0.07298520    -0.85300
O575        O  0.01882296  0.53682118  0.99707042    -0.72000
O576        O  0.46409185  0.97910706  0.99206043    -0.84200
Zr577      Zr  0.45788186  0.52729969  0.09371411     2.26400
Zr578      Zr  0.04073806  0.56639471  0.06383612     2.06300
Zr579      Zr  0.42526335  0.94965830  0.04791554     2.10000
Zr580      Zr  0.49204555  0.48741640  0.13166660     1.78800
O581        O  0.38660114  0.92918658  0.98984942    -0.93000
O582        O  0.03504436  0.52425586  0.18453042    -0.40800
O583        O  0.44638292  0.97906139  0.11468372    -0.77400
O584        O  0.00295849  0.53725432  0.12118604    -0.96100
O585        O  0.49602073  0.55705252  0.03774335    -0.89400
O586        O  0.43495358  0.49656620  0.02867277    -0.92300
C587        C  0.03106046  0.96434768  0.09553762     1.01500
C588        C  0.44272698  0.90983347  0.99188154     1.14400
C589        C  0.08605716  0.55735610  0.00234648     1.05200
O590        O  0.08175640  0.58798670  0.11837185    -0.94400
O591        O  0.04456255  0.60509279  0.10645301    -0.90200
O592        O  0.49459696  0.58086681  0.12150501    -0.83300
C593        C  0.02470313  0.60621091  0.12391374     1.11800
O594        O  0.48747095  0.52396839  0.89875095    -0.96400
Zr595      Zr  0.47304946  0.52612257  0.97305105     1.88900
O596        O  0.43832955  0.54825726  0.05280564    -0.73000
O597        O  0.06859337  0.61427318  0.02154565    -0.52300
O598        O  0.00935941  0.57804531  0.93673782    -0.97000
O599        O  0.43202499  0.99719304  0.92660483    -0.54200
O600        O  0.44707355  0.54734511  0.98046639    -0.73600
C601        C  0.43681184  0.55332318  0.01234166     0.98800
O602        O  0.44248758  0.53366607  0.16438643    -0.62400
O603        O  0.39311834  0.90087313  0.08874901    -0.57200
O604        O  0.40283461  0.48809920  0.11328948    -0.93900
O605        O  0.38264109  0.94167371  0.08551038    -0.92300
O606        O  0.45770152  0.93375205  0.16615716    -0.92600
O607        O  0.47656998  0.48995221  0.20474164    -0.91400
C608        C  0.38022589  0.95839731  0.11017804     1.17600
H609        H  0.46431952  0.93698369  0.07727733     0.33600
H610        H  0.01088194  0.54928321  0.14808249     0.44400
H611        H  0.41653585  0.99253489  0.02526206     0.38000
H612        H  0.03382107  0.54791056  0.97364868     0.34400
H613        H  0.03443022  0.51022773  0.20467613     0.26200
H614        H  0.08931543  0.62916100  0.03589443     0.32200
H615        H  0.52946819  0.58257338  0.93863190     0.38100
H616        H  0.43626075  0.92601177  0.16286815     0.32500
H617        H  0.37587595  0.88534724  0.06844565     0.31400
H618        H  0.36614254  0.91459101  0.00473068     0.33100
H619        H  0.42930290  0.51065152  0.90645627     0.32100
H620        H  0.45588302  0.48387808  0.20058650     0.36100
H621        H  0.46040205  0.54263027  0.18434501     0.28800
H622        H  0.03403943  0.97844963  0.94238845     0.33000
H623        H  0.48454617  0.53629448  0.88050651     0.35900
H624        H  0.40581375  0.89466031  0.09101176     0.28500
H625        H  0.44179818  0.55052392  0.16023189     0.41400
H626        H  0.09974604  0.60884491  0.10698376     0.31400
H627        H  0.05411956  0.53434510  0.16684105     0.39000
H628        H  0.42560355  0.97620986  0.92625751     0.30900
H629        H  0.07287141  0.60950369  0.99291657     0.30900
H630        H  0.02800682  0.49663357  0.92388437     0.31200
Zr631      Zr  0.01164829  0.99120314  0.59579982     2.17500
O632        O  0.02281510  0.98046313  0.66654290    -0.51200
O633        O  0.03511694  0.97415933  0.55500781    -0.74400
O634        O  0.47233676  0.93548460  0.61895021    -0.81100
O635        O  0.08979613  0.57681845  0.60557826    -0.82900
O636        O  0.42600148  0.91519490  0.58752770    -0.78500
O637        O  0.06530297  0.52863450  0.63327086    -0.90100
O638        O  0.03722666  0.98537016  0.48289931    -0.76100
O639        O  0.48077051  0.96660638  0.53380613    -0.85600
O640        O  0.04281687  0.52798070  0.54124013    -0.85300
O641        O  0.46539194  0.98093117  0.61555240    -0.72000
O642        O  0.02422690  0.53886715  0.62221153    -0.84200
Zr643      Zr  0.47232520  0.53988019  0.51812590     2.26400
Zr644      Zr  0.43433628  0.95802555  0.55005022     2.06300
Zr645      Zr  0.05188687  0.57396688  0.56194693     2.10000
Zr646      Zr  0.50975117  0.00360578  0.47645696     1.78800
O647        O  0.08185027  0.62071319  0.60762825    -0.93000
O648        O  0.47585928  0.95723283  0.43015992    -0.40800
O649        O  0.01972855  0.55038265  0.49764705    -0.77400
O650        O  0.46250139  0.99401218  0.49054126    -0.96100
O651        O  0.44400604  0.50348541  0.57631967    -0.89400
O652        O  0.50508731  0.56415609  0.58123982    -0.92300
C653        C  0.04250725  0.97482009  0.51500971     1.01500
C654        C  0.08932873  0.55761484  0.62877799     1.14400
C655        C  0.44313820  0.91277587  0.61103601     1.05200
O656        O  0.41271467  0.91783790  0.49416622    -0.94400
O657        O  0.39530597  0.95592647  0.51146896    -0.90200
O658        O  0.41797762  0.50370732  0.49371682    -0.83300
C659        C  0.39494143  0.97537587  0.49065346     1.11800
O660        O  0.48298144  0.51725604  0.71365407    -0.96400
Zr661      Zr  0.47669939  0.52772047  0.63915312     1.88900
O662        O  0.45136176  0.55935259  0.55977165    -0.73000
O663        O  0.38803375  0.92836899  0.59630995    -0.52300
O664        O  0.42521287  0.99057971  0.67235067    -0.97000
O665        O  0.01183075  0.57952016  0.67642337    -0.54200
O666        O  0.45219604  0.55028998  0.63194739    -0.73600
C667        C  0.44572095  0.56014598  0.60030826     0.98800
O668        O  0.46531063  0.55356311  0.44651041    -0.62400
O669        O  0.09523085  0.59748465  0.51119298    -0.57200
O670        O  0.51143790  0.59433008  0.49556749    -0.93900
O671        O  0.05764302  0.61605023  0.52787381    -0.92300
O672        O  0.06097648  0.53851638  0.44265566    -0.92600
O673        O  0.50355715  0.51139334  0.40366782    -0.91400
C674        C  0.04015180  0.61838382  0.50537545     1.17600
H675        H  0.06242389  0.53281036  0.53669014     0.33600
H676        H  0.44982220  0.98550319  0.46425056     0.44400
H677        H  0.01029084  0.58475375  0.58480011     0.38000
H678        H  0.45471866  0.96654408  0.63977590     0.34400
H679        H  0.49013812  0.95872174  0.40926490     0.26200
H680        H  0.38107470  0.94045401  0.59643312     0.32200
H681        H  0.42853264  0.50532714  0.70117896     0.38100
H682        H  0.06269342  0.52457721  0.42635037     0.32500
H683        H  0.08730169  0.59842871  0.48293069     0.31400
H684        H  0.10177979  0.63610261  0.59181585     0.33100
H685        H  0.51402693  0.59162532  0.66627996     0.32100
H686        H  0.51348171  0.03677323  0.40275721     0.36100
H687        H  0.45456240  0.53456563  0.42811605     0.28800
H688        H  0.01670404  0.95965694  0.66425989     0.33000
H689        H  0.50055713  0.51747123  0.71188529     0.35900
H690        H  0.11097842  0.61955800  0.52079882     0.28500
H691        H  0.44971045  0.55600640  0.45097202     0.41400
H692        H  0.39181604  0.89979060  0.50537048     0.31400
H693        H  0.46858442  0.93960949  0.44948551     0.39000
H694        H  0.03276629  0.59056248  0.66367527     0.30900
H695        H  0.37183293  0.90924811  0.57920210     0.30900
H696        H  0.51016945  0.97267979  0.68630903     0.31200
C697        C  0.31730980  0.92287632  0.42858991    -0.05300
C698        C  0.30533405  0.93765390  0.43762637     0.08900
C699        C  0.32332548  0.96557418  0.46237892    -0.02700
C700        C  0.35301906  0.97847278  0.47845755    -0.00900
C701        C  0.36477444  0.96321295  0.47060953    -0.04500
C702        C  0.34691860  0.93559665  0.44486859     0.02500
C703        C  0.27276342  0.92257528  0.42395754     0.09300
C704        C  0.31064101  0.98029891  0.47305401     0.35200
C705        C  0.35913373  0.92043873  0.43435282     0.38600
C706        C  0.24751207  0.90037317  0.45161836    -0.04900
C707        C  0.21697218  0.88762974  0.44070367     0.02200
C708        C  0.21133272  0.89633761  0.40134973    -0.04500
C709        C  0.23659423  0.91867412  0.37400398    -0.00700
C710        C  0.26719221  0.93142245  0.38477875    -0.03300
C711        C  0.25314351  0.89106747  0.49174203     0.36000
C712        C  0.23134458  0.93082174  0.33742687     0.39600
C713        C  0.19152771  0.86645751  0.47084691     0.38700
C714        C  0.29300160  0.95415945  0.35613163     0.35600
C715        C  0.29858970  0.89398069  0.40357499     0.36300
C716        C  0.37065777  0.00676733  0.50466522     0.39600
N717        N  0.17124463  0.84965850  0.49494935    -0.38500
N718        N  0.25774300  0.88364505  0.52363648    -0.40100
N719        N  0.22670671  0.94103290  0.30952387    -0.37800
N720        N  0.31348769  0.97226128  0.33307394    -0.40200
N721        N  0.30061629  0.99205643  0.48204861    -0.40000
N722        N  0.38429843  0.02945608  0.52525305    -0.37600
N723        N  0.37284138  0.41009712  0.42651858    -0.38700
N724        N  0.28342484  0.87081978  0.38384016    -0.40300
C725        C  0.10269832  0.90490735  0.49346249    -0.05300
C726        C  0.10093008  0.92403086  0.46685267     0.08900
C727        C  0.11440802  0.93215029  0.42482099    -0.02700
C728        C  0.12843840  0.92050160  0.40924852    -0.00900
C729        C  0.12444976  0.89610232  0.43194221    -0.04500
C730        C  0.11424496  0.89087437  0.47627203     0.02500
C731        C  0.08620038  0.93685495  0.48334973     0.09300
C732        C  0.11375323  0.95246812  0.39707451     0.35200
C733        C  0.11836213  0.87393046  0.50593854     0.38600
C734        C  0.10475092  0.96930840  0.49107690    -0.04900
C735        C  0.09054080  0.98183252  0.50118003     0.02200
C736        C  0.05774313  0.96189843  0.50511080    -0.04500
C737        C  0.03934369  0.92937247  0.49992341    -0.00700
C738        C  0.05344308  0.91686669  0.48895168    -0.03300
C739        C  0.13854003  0.98977343  0.48896961     0.36000
C740        C  0.00573258  0.90886705  0.50524207     0.39600
C741        C  0.10970138  0.01522884  0.50781496     0.38700
C742        C  0.03414784  0.88339977  0.48325595     0.35600
C743        C  0.09360328  0.90065393  0.53910996     0.36300
C744        C  0.14837956  0.93518752  0.37088149     0.39600
N745        N  0.12286486  0.53753389  0.52883629    -0.38500
N746        N  0.16548903  0.00603083  0.48726708    -0.40100
N747        N  0.47710258  0.88971630  0.49460674    -0.37800
N748        N  0.01870849  0.85663972  0.47926328    -0.40200
N749        N  0.11334019  0.96863521  0.37471559    -0.40000
N750        N  0.16415496  0.94675590  0.34023603    -0.37600
N751        N  0.12162684  0.86062299  0.53022422    -0.38700
N752        N  0.08654032  0.89759100  0.57557260    -0.40300
C753        C  0.08109412  0.70480861  0.50184602    -0.05300
C754        C  0.08112972  0.70931494  0.45642662     0.08900
C755        C  0.06935940  0.68450683  0.42703518    -0.02700
C756        C  0.05566391  0.65468724  0.44308488    -0.00900
C757        C  0.05459547  0.64978824  0.48863643    -0.04500
C758        C  0.06806747  0.67516631  0.51796645     0.02500
C759        C  0.09312509  0.74015592  0.43950016     0.09300
C760        C  0.07241622  0.69003655  0.38022730     0.35200
C761        C  0.06787032  0.67069411  0.56479567     0.38600
C762        C  0.12445262  0.76289958  0.42657733    -0.04900
C763        C  0.13596889  0.79223618  0.41106576     0.02200
C764        C  0.11624528  0.79957905  0.40987712    -0.04500
C765        C  0.08402466  0.77539615  0.42026436    -0.03700
C766        C  0.07281902  0.74619050  0.43559269    -0.03300
C767        C  0.14492992  0.75598299  0.42989639     0.36000
C768        C  0.06164283  0.77959354  0.41342911     0.39600
C769        C  0.16802103  0.81390209  0.39611811     0.38700
C770        C  0.04024581  0.72218665  0.44786889     0.35600
C771        C  0.09477504  0.73085149  0.53181600     0.36300
C772        C  0.04366497  0.62930346  0.41260969     0.39600
N773        N  0.19348534  0.82993127  0.38349134    -0.38500
N774        N  0.16104472  0.75024194  0.43275501    -0.40100
N775        N  0.04362883  0.78271203  0.40792756    -0.37800
N776        N  0.01434538  0.70299827  0.45785723    -0.40200
N777        N  0.07544242  0.69458336  0.34289366    -0.40000
N778        N  0.53819486  0.60807608  0.38529770    -0.37600
N779        N  0.06784156  0.66732914  0.60218753    -0.38700
N780        N  0.10584868  0.75173674  0.55556092    -0.40300
C781        C  0.07616826  0.68358680  0.18837477    -0.05300
C782        C  0.06219944  0.69611097  0.17728798     0.08900
C783        C  0.03501787  0.67845034  0.15108842    -0.02700
C784        C  0.02247794  0.64892676  0.13459235    -0.00900
C785        C  0.03699658  0.63658835  0.14414744    -0.04500
C786        C  0.06380807  0.65405448  0.17174183     0.02500
C787        C  0.07653613  0.72837054  0.19212979     0.09300
C788        C  0.01992259  0.69080674  0.14113711     0.35200
C789        C  0.07824066  0.64140496  0.18424823     0.38600
C790        C  0.09789957  0.75420156  0.16478713    -0.04900
C791        C  0.10981996  0.78428470  0.17704093     0.02200
C792        C  0.10164522  0.78911170  0.21778457    -0.04500
C793        C  0.08015760  0.76325308  0.24502725    -0.00700
C794        C  0.06762491  0.73295433  0.23224734    -0.03300
C795        C  0.10747250  0.74974961  0.12378995     0.36000
C796        C  0.06927029  0.76749335  0.28457356     0.39600
C797        C  0.13011946  0.81026324  0.14724276     0.38700
C798        C  0.04486558  0.70623922  0.25959938     0.35600
C799        C  0.10307982  0.70117557  0.21744074     0.36300
C800        C  0.99510145  0.63182310  0.10654152     0.39600
N801        N  0.14615075  0.83099921  0.12346913    -0.38500
N802        N  0.11527069  0.74629095  0.09115305    -0.40100
N803        N  0.06000658  0.77071090  0.31567397    -0.37800
N804        N  0.02656761  0.68469376  0.28101809    -0.40200
N805        N  0.00784990  0.70066195  0.13345247    -0.40000
N806        N  0.47867434  0.62034418  0.07148392    -0.37600
N807        N  0.08986503  0.63147121  0.19457172    -0.38700
N808        N  0.12435960  0.71549198  0.24096107    -0.40300
C809        C  0.29528471  0.92213085  0.11989814    -0.05300
C810        C  0.29053178  0.91783337  0.16565230     0.08900
C811        C  0.31482741  0.92532053  0.19286809    -0.02700
C812        C  0.34402325  0.93817479  0.17466312    -0.00900
C813        C  0.34902343  0.94330202  0.12905875    -0.04500
C814        C  0.32432391  0.93459167  0.10163160     0.02500
C815        C  0.26011462  0.90619223  0.18498583     0.09300
C816        C  0.30978945  0.91985226  0.23963436     0.35200
C817        C  0.32917856  0.93934926  0.05470098     0.38600
C818        C  0.23616473  0.87432644  0.19478210    -0.04900
C819        C  0.20677592  0.86302670  0.21020975     0.02200
C820        C  0.20033975  0.88338023  0.21405813    -0.04500
C821        C  0.22546121  0.91589050  0.20639104    -0.00700
C822        C  0.25490692  0.92700679  0.19193246    -0.03300
C823        C  0.24146134  0.85283442  0.18725249     0.36000
C824        C  0.22161738  0.93849772  0.21376509     0.39600
C825        C  0.18369098  0.83027943  0.22144716     0.38700
C826        C  0.27983189  0.95999981  0.18284390     0.35600
C827        C  0.27019899  0.91385195  0.09173582     0.36300
C828        C  0.36882500  0.94568713  0.20276736     0.39600
N829        N  0.16639927  0.80413648  0.23098745    -0.38500
N830        N  0.24554776  0.83561914  0.18097139    -0.40100
N831        N  0.21851691  0.95652371  0.21943125    -0.37800
N832        N  0.29968163  0.98624908  0.17530647    -0.40200
N833        N  0.30581326  0.91533785  0.27694485    -0.40000
N834        N  0.38860073  0.95160830  0.22513536    -0.37600
N835        N  0.33334549  0.94332115  0.01732774    -0.38700
N836        N  0.25001732  0.90717832  0.06957758    -0.40300
C837        C  0.07574972  0.94718140  0.16272821    -0.05300
C838        C  0.06800254  0.92092884  0.14082793     0.08900
C839        C  0.04986661  0.91021570  0.10205201    -0.02700
C840        C  0.03959888  0.92553617  0.08539182    -0.00900
C841        C  0.04605613  0.95102904  0.10849242    -0.04500
C842        C  0.06540525  0.96242069  0.14636310     0.02500
C843        C  0.08034171  0.90563081  0.15742989     0.09300
C844        C  0.04102749  0.88272590  0.07993774     0.35200
C845        C  0.07157266  0.48586522  0.17338217     0.38600
C846        C  0.06696914  0.88585212  0.19422364    -0.04900
C847        C  0.07948138  0.87268386  0.21072307     0.02200
C848        C  0.10634960  0.87955105  0.19116831    -0.04500
C849        C  0.11652691  0.89584209  0.15049031    -0.00700
C850        C  0.10512108  0.91042948  0.13569113    -0.03300
C851        C  0.04036178  0.87926459  0.21563243     0.36000
C852        C  0.13532009  0.89454677  0.12025031     0.39600
C853        C  0.06391696  0.85152352  0.24770117     0.38700
C854        C  0.11944772  0.93105330  0.09813209     0.35600
C855        C  0.09446394  0.95858601  0.20244620     0.36300
C856        C  0.02289481  0.91517827  0.04400469     0.39600
N857        N  0.05169234  0.83498136  0.27749457    -0.38500
N858        N  0.01922719  0.87396272  0.23308548    -0.40100
N859        N  0.15002109  0.89360918  0.09520431    -0.37800
N860        N  0.13115643  0.94777314  0.06848377    -0.40200
N861        N  0.03389280  0.86065858  0.06262998    -0.40000
N862        N  0.51056790  0.90810389  0.01477316    -0.37600
N863        N  0.07955330  0.50714999  0.19409238    -0.38700
N864        N  0.10914385  0.96757039  0.23435019    -0.40300
C865        C  0.39182085  0.57084893  0.65272733    -0.05300
C866        C  0.40352767  0.59970792  0.63507772     0.08900
C867        C  0.42842986  0.61511108  0.60492229    -0.02700
C868        C  0.44236767  0.60242099  0.59380864    -0.00900
C869        C  0.43073299  0.57345597  0.61148891    -0.04500
C870        C  0.40487921  0.55746720  0.64037870     0.02500
C871        C  0.39126905  0.61509390  0.65079143     0.09300
C872        C  0.44006015  0.64443511  0.58596253     0.35200
C873        C  0.39102676  0.52681017  0.65673069     0.38600
C874        C  0.40466140  0.63461849  0.68802143    -0.04900
C875        C  0.39414656  0.65000223  0.70243887     0.02200
C876        C  0.36718044  0.64297269  0.68342151    -0.04500
C877        C  0.35655639  0.62654729  0.64261362    -0.00700
C878        C  0.36809906  0.61216446  0.62707875    -0.03300
C879        C  0.42923961  0.63868915  0.71196269     0.36000
C880        C  0.33721995  0.62776176  0.61343231     0.39600
C881        C  0.41224327  0.67420267  0.73569840     0.38700
C882        C  0.35666499  0.59485541  0.58606475     0.35600
C883        C  0.36668826  0.55525574  0.68444508     0.36300
C884        C  0.46978317  0.62014482  0.56602028     0.39600
N885        N  0.42664744  0.69352807  0.76217214    -0.38500
N886        N  0.44860513  0.64172393  0.73142797    -0.40100
N887        N  0.32210818  0.62886597  0.58953261    -0.37800
N888        N  0.34773658  0.58122206  0.55320913    -0.40200
N889        N  0.44908946  0.66772472  0.57075024    -0.40000
N890        N  0.49178096  0.63447981  0.54408859    -0.37600
N891        N  0.37959303  0.50223965  0.66978064    -0.38700
N892        N  0.34682079  0.54299220  0.71003484    -0.40300
C893        C  0.41176956  0.78764804  0.69346728    -0.05300
C894        C  0.39065506  0.79248273  0.68675979     0.08900
C895        C  0.35901002  0.76849795  0.69750251    -0.02700
C896        C  0.34794738  0.73899094  0.71173535    -0.00900
C897        C  0.36860655  0.73279190  0.71492094    -0.04500
C898        C  0.40106004  0.75831606  0.70769802     0.02500
C899        C  0.40195797  0.82292114  0.66799710     0.09300
C900        C  0.33763587  0.77426627  0.69377000     0.35200
C901        C  0.42411906  0.75519636  0.71564862     0.38600
C902        C  0.39745134  0.82505024  0.62311892    -0.04900
C903        C  0.41081365  0.85428231  0.60445476     0.02200
C904        C  0.42817087  0.88163784  0.63077774    -0.04500
C905        C  0.43131881  0.87909314  0.67615573    -0.00700
C906        C  0.41850972  0.84998802  0.69448614    -0.03300
C907        C  0.37929529  0.79709940  0.59602548     0.36000
C908        C  0.44691681  0.90618497  0.70459027     0.39600
C909        C  0.40788029  0.85633842  0.55770183     0.38700
C910        C  0.42259754  0.84791934  0.74075880     0.35600
C911        C  0.44478902  0.81311591  0.68529935     0.36300
C912        C  0.31513265  0.71583550  0.72268070     0.39600
N913        N  0.40565799  0.85794271  0.52034631    -0.38500
N914        N  0.36455633  0.77471184  0.57458378    -0.40100
N915        N  0.45900247  0.92744039  0.72791947    -0.37800
N916        N  0.42618691  0.84649608  0.77764335    -0.40200
N917        N  0.32040695  0.77861777  0.69096974    -0.40000
N918        N  0.28894743  0.69868025  0.73209477    -0.37600
N919        N  0.44295016  0.75325255  0.72155557    -0.38700
N920        N  0.47108603  0.83362772  0.67899186    -0.40300
C921        C  0.23545475  0.63049019  0.66238319    -0.05300
C922        C  0.21136596  0.60949536  0.69230683     0.08900
C923        C  0.21820059  0.60159992  0.73118444    -0.02700
C924        C  0.24892852  0.61408167  0.73956782    -0.00900
C925        C  0.27304465  0.63535273  0.71005334    -0.04500
C926        C  0.26625393  0.64336096  0.67118324     0.02500
C927        C  0.17854596  0.59460042  0.68142181     0.09300
C928        C  0.19346805  0.58008430  0.76193686     0.35200
C929        C  0.29094620  0.66480958  0.64022358     0.38600
C930        C  0.15811874  0.56428939  0.66331735    -0.04900
C931        C  0.12798477  0.55118186  0.64941112     0.02200
C932        C  0.11889093  0.56932349  0.65053665    -0.04500
C933        C  0.13910453  0.59927116  0.67058219    -0.00700
C934        C  0.16852463  0.61148239  0.68682712    -0.03300
C935        C  0.16860071  0.54701441  0.65732501     0.36000
C936        C  0.12962985  0.61745201  0.67545744     0.39600
C937        C  0.10699542  0.51922153  0.63321835     0.38700
C938        C  0.18886234  0.64160787  0.70884237     0.35600
C939        C  0.22836905  0.63842131  0.62221448     0.36300
C940        C  0.25539681  0.60305863  0.77637857     0.39600
N941        N  0.09156491  0.99415092  0.61069231    -0.38500
N942        N  0.17683483  0.53317432  0.65213162    -0.40100
N943        N  0.12246230  0.63229301  0.67968694    -0.37800
N944        N  0.20531838  0.66550269  0.72671512    -0.40200
N945        N  0.17368848  0.56277390  0.78636631    -0.40000
N946        N  0.26090886  0.59384537  0.80471087    -0.37600
N947        N  0.31058875  0.68195896  0.61551528    -0.38700
N948        N  0.22263495  0.64471813  0.59024594    -0.40300
C949        C  0.42483184  0.60705656  0.96384552    -0.05300
C950        C  0.39538251  0.59407455  0.98082689     0.08900
C951        C  0.38001328  0.56845197  0.00961865    -0.02700
C952        C  0.39347624  0.55521537  0.02017941    -0.00900
C953        C  0.42251436  0.56740916  0.00180382    -0.04500
C954        C  0.43826418  0.59375956  0.97402199     0.02500
C955        C  0.37956839  0.60591890  0.96552668     0.09300
C956        C  0.35012723  0.55556664  0.02815854     0.35200
C957        C  0.46889298  0.60802347  0.95696436     0.38600
C958        C  0.35817666  0.59088483  0.93043387    -0.04900
C959        C  0.34469139  0.60289389  0.91369220     0.02200
C960        C  0.35401660  0.63159370  0.92993578    -0.04500
C961        C  0.37152023  0.64342929  0.96982695    -0.00700
C962        C  0.38523485  0.63146662  0.98628383    -0.03300
C963        C  0.35025071  0.56301547  0.91114222     0.36000
C964        C  0.37244215  0.66493536  0.99724448     0.39600
C965        C  0.32061244  0.58492123  0.88027555     0.38700
C966        C  0.40490428  0.64519315  0.02508359     0.35600
C967        C  0.44133990  0.63425690  0.93580610     0.36300
C968        C  0.37679458  0.52850583  0.04914396     0.39600
N969        N  0.30162205  0.57054889  0.85339247    -0.38500
N970        N  0.34392322  0.54078249  0.89581736    -0.40100
N971        N  0.37310061  0.68191217  0.01956635    -0.37800
N972        N  0.42057672  0.65622908  0.05605047    -0.40200
N973        N  0.32631233  0.54528103  0.04305535    -0.40000
N974        N  0.36315018  0.50734853  0.07257487    -0.37600
N975        N  0.49339709  0.61960700  0.94338406    -0.38700
N976        N  0.45453058  0.65607798  0.91366376    -0.40300
C977        C  0.40310900  0.78332551  0.88971641    -0.05300
C978        C  0.38998530  0.78798928  0.92437811     0.08900
C979        C  0.36333302  0.76187331  0.94620248    -0.02700
C980        C  0.35172639  0.73164740  0.93637643    -0.00900
C981        C  0.36402678  0.72681274  0.90076546    -0.04500
C982        C  0.38969436  0.75270395  0.87737393     0.02500
C983        C  0.40512717  0.82021885  0.94027751     0.09300
C984        C  0.34779876  0.76616845  0.97879754     0.35200
C985        C  0.40349097  0.74782043  0.84262969     0.38600
C986        C  0.40292663  0.83970416  0.91552553    -0.04900
C987        C  0.41564319  0.86929423  0.93201620     0.02200
C988        C  0.43026812  0.87935342  0.97356663    -0.04500
C989        C  0.43121969  0.85930902  0.99912340    -0.00700
C990        C  0.41961345  0.83029901  0.98202103    -0.03300
C991        C  0.38653773  0.82875328  0.87385510     0.36000
C992        C  0.44216064  0.86757975  0.04418030     0.39600
C993        C  0.41274808  0.88893804  0.90688124     0.38700
C994        C  0.42199266  0.81047798  0.00783581     0.35600
C995        C  0.43091164  0.80999109  0.86773655     0.36300
C996        C  0.32812792  0.70579013  0.96437921     0.39600
N997        N  0.41016636  0.90442279  0.88683427    -0.38500
N998        N  0.37329921  0.81981418  0.84072142    -0.40100
N999        N  0.45052998  0.87395048  0.08026417    -0.37800
N1000       N  0.42376642  0.79461469  0.02849270    -0.40200
N1001       N  0.33528223  0.76965605  0.00444057    -0.40000
N1002       N  0.30960563  0.68541199  0.98725002    -0.37600
N1003       N  0.41461330  0.74368185  0.81540218    -0.38700
N1004       N  0.45314363  0.83126420  0.85023460    -0.40300
C1005       C  0.21143402  0.58962116  0.92212192    -0.05300
C1006       C  0.20652276  0.61074540  0.92709064     0.08900
C1007       C  0.22976085  0.64172254  0.91279453    -0.02700
C1008       C  0.25917607  0.65250205  0.89822371    -0.00900
C1009       C  0.26579913  0.63210116  0.89776165    -0.04500
C1010       C  0.24048401  0.59991743  0.90731696     0.02500
C1011       C  0.17636767  0.59968591  0.94673060     0.09300
C1012       C  0.22297827  0.66235656  0.91211682     0.35200
C1013       C  0.24312055  0.57643646  0.90022148     0.38600
C1014       C  0.17162356  0.59530518  0.99253144    -0.04900
C1015       C  0.14218667  0.58163990  0.01072259     0.02200
C1016       C  0.11729402  0.57250873  0.98335659    -0.04500
C1017       C  0.12218510  0.57740325  0.93768174    -0.00700
C1018       C  0.15153822  0.59081930  0.91947185    -0.03300
C1019       C  0.19689191  0.60417715  0.02086239     0.36000
C1020       C  0.09702601  0.56877934  0.90932524     0.39600
C1021       C  0.13700467  0.57551162  0.05739661     0.38700
C1022       C  0.15605107  0.59496022  0.87249494     0.35600
C1023       C  0.18582427  0.55675596  0.93108933     0.36300
C1024       C  0.28170192  0.68461916  0.88381465     0.39600
N1025       N  0.13268713  0.57033583  0.09454696    -0.38500
N1026       N  0.21700052  0.61115386  0.04350553    -0.40100
N1027       N  0.07706167  0.56200906  0.88654084    -0.37800
N1028       N  0.15967116  0.59843928  0.83501101    -0.40200
N1029       N  0.21737883  0.67863321  0.91074996    -0.40000
N1030       N  0.29855910  0.71025903  0.87186327    -0.37600
N1031       N  0.24429767  0.55702602  0.89479408    -0.38700
N1032       N  0.16511101  0.53059762  0.93789258    -0.40300
C1033       C  0.84284091  0.14832364  0.90415779     0.86700
C1034       C  0.86062924  0.18291543  0.91432288    -0.53600
C1035       C  0.85003452  0.19514114  0.89191210     0.09600
C1036       C  0.82321040  0.17196549  0.85911565     0.20500
C1037       C  0.80838613  0.13204755  0.91139996    -0.54300
C1038       C  0.79730351  0.14371876  0.88798247     0.09700
C1039       C  0.84707048  0.14901261  0.85433234    -0.53800
C1040       C  0.83610606  0.16025049  0.82985670     0.10300
H1041       H  0.88059866  0.19734378  0.93610250     0.14800
H1042       H  0.81569394  0.18237949  0.83980143     0.00500
H1043       H  0.79461571  0.11382731  0.93573176     0.15100
H1044       H  0.85953602  0.14239434  0.84046232     0.14900
C1045       C  0.84929749  0.15230162  0.70687465     0.86700
C1046       C  0.81491590  0.13535258  0.69656369    -0.53600
C1047       C  0.80365681  0.14731408  0.71796673     0.09600
C1048       C  0.82748410  0.17474335  0.74954329     0.20500
C1049       C  0.86668385  0.18684216  0.69788386    -0.54300
C1050       C  0.85600749  0.19936081  0.72007368     0.09700
C1051       C  0.84846369  0.14915712  0.75705553    -0.53800
C1052       C  0.83815579  0.16160704  0.78022658     0.10300
H1053       H  0.79983438  0.11471062  0.67606949     0.14800
H1054       H  0.81781810  0.18353865  0.76770604     0.00500
H1055       H  0.88500945  0.19965197  0.67348538     0.15100
H1056       H  0.85394573  0.13604237  0.77212215     0.14900
C1057       C  0.62068988  0.36582317  0.21075735     0.86700
C1058       C  0.65312744  0.37880147  0.19513817    -0.53600
C1059       C  0.66549679  0.36800621  0.21739738     0.09600
C1060       C  0.64274787  0.34345168  0.25282446     0.20500
C1061       C  0.60012302  0.33042942  0.20716000    -0.54300
C1062       C  0.61160416  0.31856718  0.22781287     0.09700
C1063       C  0.62652385  0.37353335  0.25992380    -0.53800
C1064       C  0.63630443  0.36065080  0.28311463     0.10300
H1065       H  0.66615038  0.39614829  0.16985299     0.14800
H1066       H  0.65135310  0.33352526  0.27088360     0.00500
H1067       H  0.57930408  0.31613409  0.18668502     0.15100
H1068       H  0.62381959  0.38908158  0.27441042     0.14900
C1069       C  0.63522535  0.37910721  0.40563165     0.86700
C1070       C  0.62011763  0.34560208  0.41963917    -0.53600
C1071       C  0.63004545  0.33246300  0.39673510     0.09600
C1072       C  0.65533926  0.35521684  0.36212683     0.20500
C1073       C  0.67029125  0.39777894  0.41005553    -0.54300
C1074       C  0.68085582  0.38516905  0.38874123     0.09700
C1075       C  0.62817947  0.37465144  0.35630058    -0.53800
C1076       C  0.63986657  0.36388752  0.33246207     0.10300
H1077       H  0.60244121  0.33285106  0.44467409     0.14800
H1078       H  0.66436629  0.34595774  0.34327175     0.00500
H1079       H  0.68522664  0.41815562  0.43125431     0.15100
H1080       H  0.61344250  0.37849098  0.34218371     0.14900
Zr1081     Zr  0.50761341  0.48589531  0.01135663     2.17500
O1082       O  0.51618597  0.47569216  0.93796727    -0.51200
O1083       O  0.52930750  0.46710199  0.05295967    -0.74400
O1084       O  0.56361797  0.02625485  0.99748072    -0.81100
O1085       O  0.92305522  0.41337022  0.00324575    -0.82900
O1086       O  0.58405425  0.07185493  0.03203896    -0.78500
O1087       O  0.97305924  0.43492990  0.98836100    -0.90100
O1088       O  0.52114684  0.46952204  0.12499669    -0.76100
O1089       O  0.53080607  0.01680268  0.08401134    -0.85600
O1090       O  0.96980157  0.45921568  0.06833042    -0.85300
O1091       O  0.51985742  0.03461126  0.00214829    -0.72000
O1092       O  0.96328302  0.48116825  0.98779121    -0.84200
Zr1093     Zr  0.95826793  0.02972396  0.09633439     2.26400
Zr1094     Zr  0.54124939  0.06432380  0.06901436     2.06300
Zr1095     Zr  0.92506434  0.45159427  0.04415588     2.10000
Zr1096     Zr  0.99240097  0.98932470  0.13367323     1.78800
O1097       O  0.88666080  0.43212541  0.98598787    -0.93000
O1098       O  0.53276649  0.01911746  0.19253889    -0.40800
O1099       O  0.94652344  0.48090873  0.11118947    -0.77400
O1100       O  0.50263967  0.03514987  0.12544590    -0.96100
O1101       O  0.99698913  0.05976073  0.04118750    -0.89400
O1102       O  0.93566285  0.99980904  0.03058969    -0.92300
C1103       C  0.53173126  0.46340756  0.09380634     1.01500
C1104       C  0.94333688  0.41218149  0.98786192     1.14400
C1105       C  0.58634958  0.05520395  0.00682871     1.05200
O1106       O  0.58068648  0.08499153  0.12583000    -0.94400
O1107       O  0.54289627  0.10286543  0.10882608    -0.90200
O1108       O  0.99448003  0.08374022  0.12211185    -0.83300
C1109       C  0.52267730  0.10388976  0.12517840     1.11800
O1110       O  0.99270890  0.03307427  0.90192197    -0.96400
Zr1111     Zr  0.97440510  0.02996110  0.97576931     1.88900
O1112       O  0.93985546  0.05198595  0.05578268    -0.73000
O1113       O  0.57470701  0.11313240  0.02827027    -0.52300
O1114       O  0.51261242  0.07891917  0.94711586    -0.97000
O1115       O  0.92687513  0.49865763  0.92896625    -0.54200
O1116       O  0.94912033  0.05195725  0.98343935    -0.73600
C1117       C  0.93882665  0.05778566  0.01548749     0.98800
O1118       O  0.94234427  0.03504387  0.16724551    -0.62400
O1119       O  0.89394631  0.40238143  0.08383026    -0.57200
O1120       O  0.90294335  0.99061502  0.11522467    -0.93900
O1121       O  0.88238136  0.44415224  0.08078677    -0.92300
O1122       O  0.95895089  0.43724150  0.16557451    -0.92600
O1123       O  0.97259905  0.98665638  0.20595579    -0.91400
C1124       C  0.87994477  0.46047706  0.10646283     1.17600
H1125       H  0.96458238  0.43939623  0.07257431     0.33600
H1126       H  0.51013272  0.04711778  0.15238676     0.44400
H1127       H  0.91591385  0.49449200  0.02425777     0.38000
H1128       H  0.53511302  0.04574232  0.97899923     0.34400
H1129       H  0.53082657  0.00399691  0.21201174     0.26200
H1130       H  0.56392234  0.12149531  0.02911972     0.32200
H1131       H  0.03158690  0.09008476  0.95247482     0.38100
H1132       H  0.93751870  0.42968659  0.16376886     0.32500
H1133       H  0.89135319  0.40741299  0.11356833     0.31400
H1134       H  0.89706371  0.43325707  0.95902208     0.33100
H1135       H  0.91366880  0.99470544  0.93740903     0.32100
H1136       H  0.97285940  0.00428450  0.20664296     0.36100
H1137       H  0.96108488  0.04635564  0.18627706     0.28800
H1138       H  0.53362950  0.47577144  0.94091469     0.33000
H1139       H  0.98511274  0.04119333  0.88333234     0.35900
H1140       H  0.87289072  0.38950473  0.07037242     0.28500
H1141       H  0.93909003  0.04999166  0.16232358     0.41400
H1142       H  0.56931914  0.07994482  0.15364670     0.31400
H1143       H  0.55228482  0.02909214  0.17605948     0.39000
H1144       H  0.90952991  0.49280381  0.94773433     0.30900
H1145       H  0.59335957  0.12754200  0.04716841     0.30900
H1146       H  0.52482621  0.99140536  0.92806165     0.31200
Zr1147     Zr  0.51437108  0.49105392  0.60083570     2.17500
O1148       O  0.52947009  0.48216796  0.66943597    -0.51200
O1149       O  0.53485510  0.47147453  0.55845334    -0.74400
O1150       O  0.97533373  0.43832672  0.62373540    -0.81100
O1151       O  0.58795919  0.07637608  0.60796715    -0.82900
O1152       O  0.92917971  0.41688098  0.59086267    -0.78500
O1153       O  0.56319810  0.02733439  0.63255187    -0.90100
O1154       O  0.53406015  0.48058637  0.48620844    -0.76100
O1155       O  0.98183707  0.46746158  0.53663225    -0.85600
O1156       O  0.54164620  0.02708808  0.54027422    -0.85300
O1157       O  0.96728236  0.48265099  0.61893334    -0.72000
O1158       O  0.52190304  0.03680843  0.62033588    -0.84200
Zr1159     Zr  0.97303882  0.04251063  0.51214624     2.26400
Zr1160     Zr  0.93549911  0.45885843  0.55403148     2.06300
Zr1161     Zr  0.55073705  0.07313437  0.56166457     2.10000
Zr1162     Zr  0.01017697  0.50371011  0.47835406     1.78800
O1163       O  0.57489625  0.11715691  0.61164831    -0.93000
O1164       O  0.97643171  0.45645205  0.43367798    -0.40800
O1165       O  0.51935009  0.05013208  0.49666365    -0.77400
O1166       O  0.96292468  0.49396081  0.49338959    -0.96100
O1167       O  0.94253656  0.00419087  0.56751938    -0.89400
O1168       O  0.00303809  0.06449726  0.57798851    -0.92300
C1169       C  0.54020041  0.47059731  0.51788782     1.01500
C1170       C  0.58711750  0.05661106  0.63025026     1.14400
C1171       C  0.94655346  0.41512574  0.61504382     1.05200
O1172       O  0.90812433  0.41407665  0.50485770    -0.94400
O1173       O  0.89631133  0.45487955  0.51246019    -0.90200
O1174       O  0.91934198  0.00758993  0.48481284    -0.83300
C1175       C  0.89527624  0.47417271  0.49272174     1.11800
O1176       O  0.97876630  0.01289309  0.70566108    -0.96400
Zr1177     Zr  0.97242189  0.02610262  0.63311363     1.88900
O1178       O  0.95065662  0.06070993  0.55294831    -0.73000
O1179       O  0.88936797  0.43312290  0.59977582    -0.52300
O1180       O  0.93053147  0.49596820  0.68157754    -0.97000
O1181       O  0.50582642  0.07493779  0.67935784    -0.54200
O1182       O  0.94732401  0.04778860  0.62447422    -0.73600
C1183       C  0.94283747  0.05942036  0.59297186     0.98800
O1184       O  0.97019854  0.05792976  0.43917497    -0.62400
O1185       O  0.59690504  0.09841193  0.51596323    -0.57200
O1186       O  0.01225228  0.09788301  0.49464460    -0.93900
O1187       O  0.55808845  0.11499705  0.52257874    -0.92300
O1188       O  0.56010481  0.03978018  0.43984778    -0.92600
O1189       O  0.01201140  0.02220697  0.40017425    -0.91400
C1190       C  0.54062231  0.11754578  0.50023988     1.17600
H1191       H  0.56124654  0.03180867  0.53626618     0.33600
H1192       H  0.94995532  0.48514459  0.46741457     0.44400
H1193       H  0.50897504  0.08370881  0.58393329     0.38000
H1194       H  0.95693698  0.46857876  0.64354389     0.34400
H1195       H  0.96086647  0.45697655  0.42031239     0.26200
H1196       H  0.87321178  0.41270632  0.58522236     0.32200
H1197       H  0.92137128  0.00030962  0.69141600     0.38100
H1198       H  0.57454288  0.03915748  0.45689452     0.32500
H1199       H  0.61292304  0.11921252  0.52962176     0.31400
H1200       H  0.59629757  0.13343368  0.60016491     0.33100
H1201       H  0.00291044  0.08789682  0.66488984     0.32100
H1202       H  0.99440818  0.52290354  0.40613439     0.36100
H1203       H  0.96146986  0.03963398  0.42013421     0.28800
H1204       H  0.52466578  0.46202423  0.66608196     0.33000
H1205       H  0.97153756  0.02023752  0.72679849     0.35900
H1206       H  0.60437409  0.08709205  0.52173885     0.28500
H1207       H  0.95362976  0.05921780  0.44075159     0.41400
H1208       H  0.92376068  0.41999436  0.48245327     0.31400
H1209       H  0.98965403  0.45988799  0.40893600     0.39000
H1210       H  0.52769631  0.08408903  0.67512708     0.30900
H1211       H  0.89432941  0.42789075  0.62722104     0.30900
H1212       H  0.01571053  0.47727875  0.68876763     0.31200
C1213       C  0.81737883  0.42079825  0.43036861    -0.05300
C1214       C  0.80613740  0.43656508  0.43677142     0.08900
C1215       C  0.82463046  0.46517702  0.45979545    -0.02700
C1216       C  0.85367740  0.47748311  0.47781286    -0.00900
C1217       C  0.86498127  0.46158608  0.47216664    -0.04500
C1218       C  0.84680214  0.43337147  0.44755193     0.02500
C1219       C  0.77371430  0.42194105  0.42260799     0.09300
C1220       C  0.81325330  0.48159773  0.46588977     0.35200
C1221       C  0.85857333  0.41756340  0.43881706     0.38600
C1222       C  0.74837131  0.40099029  0.45092180    -0.04900
C1223       C  0.71801440  0.38861633  0.43948807     0.02200
C1224       C  0.71254019  0.39636319  0.39896020    -0.04500
C1225       C  0.73792920  0.41763585  0.37104239    -0.00700
C1226       C  0.76853162  0.43083142  0.38306402    -0.03300
C1227       C  0.75392970  0.39352678  0.49298781     0.36000
C1228       C  0.73264999  0.42754318  0.33154750     0.39600
C1229       C  0.69244452  0.36821679  0.46982225     0.38700
C1230       C  0.79492694  0.45520643  0.35650665     0.35600
C1231       C  0.79840165  0.39140753  0.40646761     0.36300
C1232       C  0.87097984  0.50578399  0.50403254     0.39600
N1233       N  0.67206624  0.35191393  0.49402128    -0.38500
N1234       N  0.75855828  0.38789205  0.52666278    -0.40100
N1235       N  0.72794958  0.43557814  0.30060322    -0.37800
N1236       N  0.81606811  0.47515888  0.33587676    -0.40200
N1237       N  0.80416355  0.49468862  0.47057334    -0.40000
N1238       N  0.88439219  0.52835120  0.52489275    -0.37600
N1239       N  0.87422867  0.91631419  0.41103131    -0.38700
N1240       N  0.78319856  0.36792313  0.38748666    -0.40300
C1241       C  0.59970323  0.40110137  0.48899388    -0.05300
C1242       C  0.59925885  0.42159377  0.46369477     0.08900
C1243       C  0.61481443  0.43189602  0.42304525    -0.02700
C1244       C  0.62931100  0.42074079  0.40708790    -0.00900
C1245       C  0.62517651  0.39593262  0.42877055    -0.04500
C1246       C  0.61322549  0.38895238  0.47226836     0.02500
C1247       C  0.58393610  0.43371082  0.48064565     0.09300
C1248       C  0.61553053  0.45373194  0.39692396     0.35200
C1249       C  0.61766952  0.37229499  0.50198469     0.38600
C1250       C  0.60231249  0.46569514  0.49181715    -0.04900
C1251       C  0.58790089  0.47779089  0.50305663     0.02200
C1252       C  0.55513988  0.45766685  0.50660087    -0.04500
C1253       C  0.53673103  0.42549285  0.49790027    -0.00700
C1254       C  0.55097997  0.41359917  0.48413159    -0.03300
C1255       C  0.63611618  0.48618323  0.49227810     0.36000
C1256       C  0.50304470  0.40480847  0.50234217     0.39600
C1257       C  0.60669957  0.51112774  0.51000794     0.38700
C1258       C  0.53160852  0.38073882  0.47304646     0.35600
C1259       C  0.58638906  0.39275703  0.53265612     0.36300
C1260       C  0.64948334  0.43606924  0.36906875     0.39600
N1261       N  0.62114154  0.03911289  0.51690039    -0.38500
N1262       N  0.66310654  0.50266287  0.49293718    -0.40100
N1263       N  0.97706299  0.39052309  0.49245216    -0.37800
N1264       N  0.51593436  0.35443980  0.46451431    -0.40200
N1265       N  0.61624833  0.47113950  0.37589663    -0.40000
N1266       N  0.66532048  0.44831048  0.33859878    -0.37600
N1267       N  0.62122010  0.35922783  0.52630098    -0.38700
N1268       N  0.57546647  0.38605093  0.56728364    -0.40300
C1269       C  0.58001270  0.20347010  0.49188262    -0.05300
C1270       C  0.57964248  0.20701436  0.44617182     0.08900
C1271       C  0.56813474  0.18160457  0.41807698    -0.02700
C1272       C  0.55592387  0.15249853  0.43570666    -0.00900
C1273       C  0.55522309  0.14864611  0.48155760    -0.04500
C1274       C  0.56786189  0.17442909  0.50953717     0.02500
C1275       C  0.59184795  0.23786099  0.42810952     0.09300
C1276       C  0.56935373  0.18559215  0.37104158     0.35200
C1277       C  0.56771823  0.17089698  0.55661204     0.38600
C1278       C  0.62371194  0.26118688  0.41803011    -0.04900
C1279       C  0.63615034  0.29154141  0.40600091     0.02200
C1280       C  0.61671867  0.29922426  0.40468889    -0.04500
C1281       C  0.58408062  0.27468199  0.41226085    -0.03700
C1282       C  0.57191809  0.24436257  0.42371995    -0.03300
C1283       C  0.64376308  0.25373030  0.42049776     0.36000
C1284       C  0.56237049  0.27991606  0.40736718     0.39600
C1285       C  0.66908305  0.31421117  0.39557427     0.38700
C1286       C  0.53865616  0.21956236  0.43102052     0.35600
C1287       C  0.59319567  0.22996412  0.52065836     0.36300
C1288       C  0.54504452  0.12674607  0.40669147     0.39600
N1289       N  0.69533556  0.33105193  0.38660609    -0.38500
N1290       N  0.65948040  0.24747132  0.42243192    -0.40100
N1291       N  0.54492551  0.28394891  0.40371970    -0.37800
N1292       N  0.51211919  0.19966687  0.43654901    -0.40200
N1293       N  0.57050336  0.18872664  0.33345106    -0.40000
N1294       N  0.03842186  0.11123526  0.38626867    -0.37600
N1295       N  0.56760457  0.16805966  0.59416628    -0.38700
N1296       N  0.60393844  0.25131904  0.54326563    -0.40300
C1297       C  0.56997495  0.17945285  0.19252953    -0.05300
C1298       C  0.55719020  0.19255027  0.17783203     0.08900
C1299       C  0.53213130  0.17589788  0.14778400    -0.02700
C1300       C  0.52122258  0.14722058  0.13024084    -0.00900
C1301       C  0.53419160  0.13406141  0.14436978    -0.04500
C1302       C  0.55833455  0.15015085  0.17624064     0.02500
C1303       C  0.57149797  0.22490270  0.19160672     0.09300
C1304       C  0.51776226  0.18854572  0.13472920     0.35200
C1305       C  0.57107547  0.13657313  0.19273481     0.38600
C1306       C  0.59330839  0.25035554  0.16401713    -0.04900
C1307       C  0.60659710  0.28087244  0.17626922     0.02200
C1308       C  0.59866257  0.28633403  0.21672462    -0.04500
C1309       C  0.57558152  0.26060661  0.24313009    -0.00700
C1310       C  0.56230211  0.23000076  0.23087828    -0.03300
C1311       C  0.60134475  0.24494767  0.12227133     0.36000
C1312       C  0.56346403  0.26521870  0.28068082     0.39600
C1313       C  0.62773623  0.30653844  0.14640731     0.38700
C1314       C  0.53814737  0.20348955  0.25749679     0.35600
C1315       C  0.59538643  0.19648514  0.22410803     0.36300
C1316       C  0.49817428  0.13253609  0.09535632     0.39600
N1317       N  0.64451220  0.32688909  0.12240524    -0.38500
N1318       N  0.60753230  0.24059024  0.08881092    -0.40100
N1319       N  0.55285727  0.26843709  0.30992717    -0.37800
N1320       N  0.51871878  0.18214960  0.27834460    -0.40200
N1321       N  0.50621922  0.19861582  0.12473677    -0.40000
N1322       N  0.97769508  0.12303073  0.07258282    -0.37600
N1323       N  0.58143371  0.12600772  0.20630514    -0.38700
N1324       N  0.61566082  0.21035965  0.24929612    -0.40300
C1325       C  0.79352811  0.41978947  0.11579049    -0.05300
C1326       C  0.78910356  0.41635570  0.16157641     0.08900
C1327       C  0.81409582  0.42603963  0.18913900    -0.02700
C1328       C  0.84378058  0.44047666  0.17113425    -0.00900
C1329       C  0.84854395  0.44489253  0.12534162    -0.04500
C1330       C  0.82305683  0.43387219  0.09768178     0.02500
C1331       C  0.75849397  0.40421639  0.18052459     0.09300
C1332       C  0.80912701  0.42094304  0.23599029     0.35200
C1333       C  0.82735429  0.43781945  0.05062396     0.38600
C1334       C  0.73490864  0.37235808  0.19062344    -0.04900
C1335       C  0.70523416  0.36064635  0.20528604     0.02200
C1336       C  0.69834188  0.38065080  0.20830925    -0.04500
C1337       C  0.72304090  0.41315868  0.19989854    -0.00700
C1338       C  0.75268611  0.42462716  0.18614493    -0.03300
C1339       C  0.74099952  0.35139899  0.18434758     0.36000
C1340       C  0.71877226  0.43555133  0.20620308     0.39600
C1341       C  0.68227364  0.32785428  0.21639154     0.38700
C1342       C  0.77732004  0.45763058  0.17669882     0.35600
C1343       C  0.76748348  0.40883798  0.08746337     0.36300
C1344       C  0.86927284  0.45015658  0.19967529     0.39600
N1345       N  0.66499678  0.30166456  0.22568761    -0.38500
N1346       N  0.74589572  0.33473902  0.17904291    -0.40100
N1347       N  0.71564036  0.45360904  0.21111314    -0.37800
N1348       N  0.79696929  0.48388982  0.16900566    -0.40200
N1349       N  0.80504690  0.41659555  0.27332269    -0.40000
N1350       N  0.88959634  0.45781057  0.22243437    -0.37600
N1351       N  0.83060873  0.44091642  0.01304228    -0.38700
N1352       N  0.74644098  0.39991877  0.06535824    -0.40300
C1353       C  0.57788639  0.44761762  0.15953447    -0.05300
C1354       C  0.56961257  0.42103895  0.13794543     0.08900
C1355       C  0.55122789  0.41010549  0.09946450    -0.02700
C1356       C  0.54124765  0.42557541  0.08271849    -0.00900
C1357       C  0.54717805  0.45062058  0.10640805    -0.04500
C1358       C  0.56675784  0.46227490  0.14401111     0.02500
C1359       C  0.58121714  0.40523157  0.15483900     0.09300
C1360       C  0.54215691  0.38245358  0.07748037     0.35200
C1361       C  0.57634848  0.98825527  0.17448062     0.38600
C1362       C  0.56878193  0.38731811  0.19347203    -0.04900
C1363       C  0.58018611  0.37311658  0.20977500     0.02200
C1364       C  0.60514473  0.37736706  0.18834106    -0.04500
C1365       C  0.61369390  0.39116309  0.14597393    -0.00700
C1366       C  0.60358707  0.40687037  0.13105555    -0.03300
C1367       C  0.54420214  0.38354116  0.21682438     0.36000
C1368       C  0.62869109  0.38552975  0.11458095     0.39600
C1369       C  0.56529684  0.35337561  0.24823156     0.38700
C1370       C  0.61635880  0.42490280  0.09093378     0.35600
C1371       C  0.59806891  0.45995537  0.19782096     0.36300
C1372       C  0.52585163  0.41609172  0.04035740     0.39600
N1373       N  0.55374170  0.33794549  0.27916716    -0.38500
N1374       N  0.52472867  0.38046881  0.23594761    -0.40100
N1375       N  0.64018275  0.38089716  0.08872186    -0.37800
N1376       N  0.62652430  0.43936663  0.05901956    -0.40200
N1377       N  0.53513543  0.36038914  0.06032841    -0.40000
N1378       N  0.01832112  0.41636585  0.00199585    -0.37600
N1379       N  0.58681780  0.01167209  0.19128921    -0.38700
N1380       N  0.61405328  0.46953145  0.22844737    -0.40300
C1381       C  0.88683209  0.06794961  0.64220345    -0.05300
C1382       C  0.90115147  0.09876552  0.63014391     0.08900
C1383       C  0.92805411  0.11593891  0.60348541    -0.02700
C1384       C  0.94128543  0.10289115  0.59040600    -0.00900
C1385       C  0.92773120  0.07248298  0.60400186    -0.04500
C1386       C  0.89998961  0.05481979  0.62915170     0.02500
C1387       C  0.88897417  0.11382916  0.64758382     0.09300
C1388       C  0.94246159  0.14734676  0.59010121     0.35200
C1389       C  0.88434479  0.02269405  0.64033839     0.38600
C1390       C  0.90208343  0.13220709  0.68585579    -0.04900
C1391       C  0.89131610  0.14699519  0.70222734     0.02200
C1392       C  0.86471175  0.14089005  0.68322535    -0.04500
C1393       C  0.85443616  0.12556210  0.64155082    -0.00700
C1394       C  0.86581393  0.11131244  0.62478237    -0.03300
C1395       C  0.92653483  0.13547431  0.70880136     0.36000
C1396       C  0.83502698  0.12714820  0.61317803     0.39600
C1397       C  0.90891851  0.16964869  0.73745593     0.38700
C1398       C  0.85381989  0.09401618  0.58377588     0.35600
C1399       C  0.85860938  0.04983075  0.66833906     0.36300
C1400       C  0.96956410  0.12134557  0.56431531     0.39600
N1401       N  0.92283318  0.18755519  0.76573253    -0.38500
N1402       N  0.94580352  0.13765047  0.72699497    -0.40100
N1403       N  0.81977032  0.12839431  0.58985118    -0.37800
N1404       N  0.84434192  0.08004941  0.55120340    -0.40200
N1405       N  0.95405051  0.17241611  0.57930234    -0.40000
N1406       N  0.99207544  0.13610678  0.54341990    -0.37600
N1407       N  0.87185433  0.99701366  0.64886832    -0.38700
N1408       N  0.83603353  0.03532192  0.68909355    -0.40300
C1409       C  0.91528714  0.28726958  0.69176487    -0.05300
C1410       C  0.89583537  0.29428567  0.68623104     0.08900
C1411       C  0.86378492  0.27127286  0.69568812    -0.02700
C1412       C  0.85081507  0.24093556  0.70889922    -0.00900
C1413       C  0.86992116  0.23293663  0.71264604    -0.04500
C1414       C  0.90273631  0.25723949  0.70578241     0.02500
C1415       C  0.90874182  0.32547107  0.66835349     0.09300
C1416       C  0.84385641  0.27870584  0.68994686     0.35200
C1417       C  0.92426128  0.25204552  0.71361895     0.38600
C1418       C  0.90288054  0.32789639  0.62433585    -0.04900
C1419       C  0.91490277  0.35699178  0.60710267     0.02200
C1420       C  0.93274900  0.38412260  0.63384915    -0.04500
C1421       C  0.93810981  0.38152840  0.67826670    -0.00700
C1422       C  0.92620876  0.35238758  0.69530844    -0.03300
C1423       C  0.88420714  0.30025528  0.59663693     0.36000
C1424       C  0.95473918  0.40844557  0.70732681     0.39600
C1425       C  0.90961931  0.35893177  0.56124920     0.38700
C1426       C  0.93133857  0.35005836  0.74103409     0.35600
C1427       C  0.94820864  0.31071961  0.68096568     0.36300
C1428       C  0.81760213  0.21856811  0.71749490     0.39600
N1429       N  0.90523729  0.36014133  0.52461647    -0.38500
N1430       N  0.86904296  0.27823272  0.57451560    -0.40100
N1431       N  0.96768604  0.42947407  0.73127022    -0.37800
N1432       N  0.93561323  0.34875069  0.77766304    -0.40200
N1433       N  0.82819168  0.28481726  0.68469369    -0.40000
N1434       N  0.79110020  0.20197975  0.72479446    -0.37600
N1435       N  0.94171715  0.24823673  0.71952397    -0.38700
N1436       N  0.97438118  0.32937171  0.67195096    -0.40300
C1437       C  0.73254472  0.12988574  0.66642099    -0.05300
C1438       C  0.70860584  0.10739759  0.69552367     0.08900
C1439       C  0.71578020  0.09732915  0.73135417    -0.02700
C1440       C  0.74696378  0.11071276  0.73897741    -0.00900
C1441       C  0.77101381  0.13407729  0.71090643    -0.04500
C1442       C  0.76351269  0.14265139  0.67355757     0.02500
C1443       C  0.67549343  0.09230295  0.68539807     0.09300
C1444       C  0.69083048  0.07203114  0.75872589     0.35200
C1445       C  0.78757665  0.16409937  0.64189977     0.38600
C1446       C  0.65572601  0.06290309  0.66451553    -0.04900
C1447       C  0.62599568  0.05032034  0.64938209     0.02200
C1448       C  0.61626941  0.06780715  0.65302804    -0.04500
C1449       C  0.63537849  0.09642700  0.67664222    -0.00700
C1450       C  0.66470409  0.10834876  0.69330978    -0.03300
C1451       C  0.66647208  0.04597343  0.65732013     0.36000
C1452       C  0.62464982  0.11323873  0.68490717     0.39600
C1453       C  0.60598013  0.01955209  0.62919236     0.38700
C1454       C  0.68403274  0.13718846  0.71850321     0.35600
C1455       C  0.72503715  0.13901495  0.62815873     0.36300
C1456       C  0.75413289  0.09860556  0.77310814     0.39600
N1457       N  0.59597115  0.49654742  0.61268686    -0.38500
N1458       N  0.67504784  0.03248009  0.65170592    -0.40100
N1459       N  0.61621746  0.12673903  0.69188565    -0.37800
N1460       N  0.69960744  0.16004485  0.73892276    -0.40200
N1461       N  0.67070728  0.05141597  0.77984412    -0.40000
N1462       N  0.76043004  0.08878274  0.79919766    -0.37600
N1463       N  0.80675274  0.18115251  0.61661187    -0.38700
N1464       N  0.71897394  0.14622906  0.59765125    -0.40300
C1465       C  0.92537338  0.11019537  0.96546134    -0.05300
C1466       C  0.89546886  0.09631080  0.98155296     0.08900
C1467       C  0.88091396  0.07151260  0.01162488    -0.02700
C1468       C  0.89543942  0.05961200  0.02388003    -0.00900
C1469       C  0.92446978  0.07193047  0.00524677    -0.04500
C1470       C  0.93979250  0.09807431  0.97704824     0.02500
C1471       C  0.87892233  0.10721474  0.96544163     0.09300
C1472       C  0.85077993  0.05815687  0.02970117     0.35200
C1473       C  0.97118956  0.11373903  0.96187607     0.38600
C1474       C  0.85955213  0.09322776  0.92813508    -0.04900
C1475       C  0.84548797  0.10457251  0.91108737     0.02200
C1476       C  0.85266484  0.13193840  0.92906557    -0.04500
C1477       C  0.86774483  0.14223396  0.97079213    -0.00700
C1478       C  0.88173322  0.13070842  0.98790842    -0.03300
C1479       C  0.85415650  0.06706068  0.90706073     0.36000
C1480       C  0.86573538  0.16151288  0.99885328     0.39600
C1481       C  0.82283782  0.08711744  0.87583095     0.38700
C1482       C  0.89863172  0.14255976  0.02917313     0.35600
C1483       C  0.94135095  0.13730701  0.93731574     0.36300
C1484       C  0.88012999  0.03444174  0.05540922     0.39600
N1485       N  0.80500679  0.07321619  0.84749358    -0.38500
N1486       N  0.84979251  0.04619905  0.89012983    -0.40100
N1487       N  0.86387179  0.17658510  0.02164845    -0.37800
N1488       N  0.91204599  0.15176700  0.06216815    -0.40200
N1489       N  0.82676130  0.04766900  0.04402344    -0.40000
N1490       N  0.86792887  0.01465338  0.08105942    -0.37600
N1491       N  0.99641449  0.12664293  0.95011498    -0.38700
N1492       N  0.95382694  0.15906082  0.91518650    -0.40300
C1493       C  0.90443968  0.28397850  0.89045438    -0.05300
C1494       C  0.89322369  0.28984315  0.92646036     0.08900
C1495       C  0.86717254  0.26444292  0.95011333    -0.02700
C1496       C  0.85273379  0.23351647  0.93830519    -0.00900
C1497       C  0.86316775  0.22758843  0.90130884    -0.04500
C1498       C  0.88900827  0.25290683  0.87741326     0.02500
C1499       C  0.90851211  0.32261307  0.93992491     0.09300
C1500       C  0.85559660  0.27025113  0.98726112     0.35200
C1501       C  0.90042470  0.24676112  0.84062226     0.38600
C1502       C  0.90234812  0.33947351  0.91630775    -0.04900
C1503       C  0.91439059  0.36920064  0.93117902     0.02200
C1504       C  0.93172267  0.38172521  0.97056769    -0.04500
C1505       C  0.93675310  0.36431188  0.99509693    -0.00700
C1506       C  0.92611920  0.33538172  0.97916430    -0.03300
C1507       C  0.88198370  0.32534613  0.87823195     0.36000
C1508       C  0.95022641  0.37476982  0.03872965     0.39600
C1509       C  0.90811938  0.38644988  0.90670143     0.38700
C1510       C  0.93186116  0.31796374  0.00445578     0.35600
C1511       C  0.93282186  0.30981106  0.86848053     0.36300
C1512       C  0.82730648  0.20779710  0.96469839     0.39600
N1513       N  0.90295693  0.40008747  0.88716717    -0.38500
N1514       N  0.86538978  0.31386595  0.84821301    -0.40100
N1515       N  0.96036218  0.38281408  0.07386064    -0.37800
N1516       N  0.93625109  0.30406208  0.02504623    -0.40200
N1517       N  0.84666986  0.27511859  0.01701782    -0.40000
N1518       N  0.80691335  0.18742799  0.98580076    -0.37600
N1519       N  0.90929109  0.24132532  0.81156171    -0.38700
N1520       N  0.95579711  0.33031565  0.85136676    -0.40300
C1521       C  0.70940929  0.08753572  0.91581217    -0.05300
C1522       C  0.70417307  0.10831184  0.92232252     0.08900
C1523       C  0.72737128  0.13971399  0.90999318    -0.02700
C1524       C  0.75713197  0.15127486  0.89601709    -0.00900
C1525       C  0.76410601  0.13121116  0.89426201    -0.04500
C1526       C  0.73892013  0.09865867  0.90176646     0.02500
C1527       C  0.67452687  0.09709752  0.94381412     0.09300
C1528       C  0.72029818  0.16009674  0.91144667     0.35200
C1529       C  0.74258087  0.07591827  0.89452949     0.38600
C1530       C  0.67282419  0.09739039  0.98998918    -0.04900
C1531       C  0.64432695  0.08452348  0.01075525     0.02200
C1532       C  0.61708994  0.07068488  0.98545937    -0.04500
C1533       C  0.61920483  0.07153131  0.93915672    -0.00700
C1534       C  0.64785735  0.08495165  0.91847282    -0.03300
C1535       C  0.70045402  0.11063122  0.01612401     0.36000
C1536       C  0.59200878  0.05922958  0.91264036     0.39600
C1537       C  0.64293803  0.08469467  0.05819304     0.38700
C1538       C  0.65003208  0.08648328  0.87106012     0.35600
C1539       C  0.68400932  0.05441843  0.92337223     0.36300
C1540       C  0.77987006  0.18398166  0.88443043     0.39600
N1541       N  0.64212609  0.08501392  0.09607104    -0.38500
N1542       N  0.72254126  0.12119768  0.03685490    -0.40100
N1543       N  0.57036946  0.04952322  0.89140586    -0.37800
N1544       N  0.65183785  0.08797684  0.83323702    -0.40200
N1545       N  0.71445495  0.17618417  0.91206047    -0.40000
N1546       N  0.79690535  0.21013921  0.87492229    -0.37600
N1547       N  0.74501577  0.05738679  0.88915951    -0.38700
N1548       N  0.66352063  0.02803140  0.92903586    -0.40300
C1549       C  0.84525894  0.64972158  0.90273920     0.86700
C1550       C  0.86174929  0.68397876  0.91316242    -0.53600
C1551       C  0.85025629  0.69524125  0.89058520     0.09600
C1552       C  0.82405437  0.67164507  0.85747055     0.20500
C1553       C  0.81044852  0.63215003  0.90950960    -0.54300
C1554       C  0.79852901  0.64295350  0.88609276     0.09700
C1555       C  0.85007408  0.65091081  0.85300159    -0.53800
C1556       C  0.83842088  0.66138747  0.82844272     0.10300
H1557       H  0.88149721  0.69891753  0.93515106     0.14800
H1558       H  0.81588957  0.68134166  0.83800609     0.00500
H1559       H  0.79718031  0.61400280  0.93403391     0.15100
H1560       H  0.86355590  0.64542310  0.83926379     0.14900
C1561       C  0.85396893  0.65624618  0.70557322     0.86700
C1562       C  0.81965288  0.63921047  0.69435907    -0.53600
C1563       C  0.80787530  0.65053456  0.71607542     0.09600
C1564       C  0.83087907  0.67716920  0.74877015     0.20500
C1565       C  0.87109894  0.69092896  0.69790871    -0.54300
C1566       C  0.85933106  0.70245639  0.72004808     0.09700
C1567       C  0.85247852  0.65216066  0.75560951    -0.53800
C1568       C  0.84145282  0.66380057  0.77899564     0.10300
H1569       H  0.80495795  0.61898959  0.67305201     0.14800
H1570       H  0.82072091  0.68524256  0.76733258     0.00500
H1571       H  0.88956023  0.70433243  0.67378204     0.15100
H1572       H  0.85808508  0.63907478  0.77043284     0.14900
C1573       C  0.61935354  0.86363508  0.21332791     0.86700
C1574       C  0.65287674  0.87891890  0.19945310    -0.53600
C1575       C  0.66611207  0.86899201  0.22158331     0.09600
C1576       C  0.64329843  0.84334061  0.25598524     0.20500
C1577       C  0.60076234  0.82859273  0.20828312    -0.54300
C1578       C  0.61313481  0.81779726  0.22954112     0.09700
C1579       C  0.62331787  0.87006515  0.26278654    -0.53800
C1580       C  0.63439312  0.85850208  0.28618864     0.10300
H1581       H  0.66585954  0.89685755  0.17503022     0.14800
H1582       H  0.65263972  0.83427712  0.27435702     0.00500
H1583       H  0.58027618  0.81372489  0.18729513     0.15100
H1584       H  0.61824980  0.88375030  0.27724619     0.14900
C1585       C  0.63359521  0.87792165  0.40835691     0.86700
C1586       C  0.61948784  0.84500441  0.42370624    -0.53600
C1587       C  0.62953634  0.83193599  0.40094980     0.09600
C1588       C  0.65401900  0.85419342  0.36532877     0.20500
C1589       C  0.66878403  0.89731225  0.41161392    -0.54300
C1590       C  0.67945734  0.88478463  0.39060381     0.09700
C1591       C  0.62555097  0.87218554  0.35927556    -0.53800
C1592       C  0.63758020  0.86168816  0.33557595     0.10300
H1593       H  0.60217672  0.83239223  0.44919978     0.14800
H1594       H  0.66323707  0.84498345  0.34686938     0.00500
H1595       H  0.68381236  0.91817304  0.43193169     0.15100
H1596       H  0.61027891  0.87536933  0.34530986     0.14900
Zr1597     Zr  0.50869979  0.98654743  0.01835214     2.17500
O1598       O  0.51787689  0.97393019  0.94743703    -0.51200
O1599       O  0.52964679  0.96765394  0.06189842    -0.74400
O1600       O  0.56274393  0.52450275  0.99169487    -0.81100
O1601       O  0.92172170  0.91340284  0.00378191    -0.82900
O1602       O  0.58326263  0.57082522  0.02402373    -0.78500
O1603       O  0.97118412  0.93402519  0.98705988    -0.90100
O1604       O  0.52011361  0.96870763  0.13374485    -0.76100
O1605       O  0.53058792  0.51693540  0.07630142    -0.85600
O1606       O  0.96935986  0.95888182  0.06877940    -0.85300
O1607       O  0.51837793  0.53370447  0.99477147    -0.72000
O1608       O  0.96334580  0.98159353  0.98827881    -0.84200
Zr1609     Zr  0.95773172  0.52907323  0.09702781     2.26400
Zr1610     Zr  0.54088002  0.56427491  0.06083352     2.06300
Zr1611     Zr  0.92519515  0.95227965  0.04479082     2.10000
Zr1612     Zr  0.99209318  0.48926707  0.13359028     1.78800
O1613       O  0.88577339  0.93163182  0.98792753    -0.93000
O1614       O  0.53115354  0.51599390  0.18951717    -0.40800
O1615       O  0.94696779  0.98157483  0.11166693    -0.77400
O1616       O  0.50313595  0.53544008  0.11813964    -0.96100
O1617       O  0.99590611  0.55921179  0.04113213    -0.89400
O1618       O  0.93508144  0.49893473  0.03131962    -0.92300
C1619       C  0.53103540  0.96295845  0.10270730     1.01500
C1620       C  0.94134663  0.91166579  0.98733846     1.14400
C1621       C  0.58550740  0.55351848  0.00038332     1.05200
O1622       O  0.57953770  0.58424901  0.11861836    -0.94400
O1623       O  0.54423867  0.60340429  0.10255354    -0.90200
O1624       O  0.99490875  0.58322924  0.12391109    -0.83300
C1625       C  0.52423502  0.60401293  0.12107163     1.11800
O1626       O  0.98435460  0.52378209  0.90108271    -0.96400
Zr1627     Zr  0.97316974  0.52888806  0.97588018     1.88900
O1628       O  0.93784092  0.55003805  0.05726291    -0.73000
O1629       O  0.57262269  0.61190577  0.01748212    -0.52300
O1630       O  0.50992326  0.57873344  0.94331025    -0.97000
O1631       O  0.93140754  0.99798783  0.92358662    -0.54200
O1632       O  0.95041567  0.55325469  0.98562350    -0.73600
C1633       C  0.93857408  0.55754155  0.01731311     0.98800
O1634       O  0.94333245  0.53401079  0.16956373    -0.62400
O1635       O  0.89490557  0.90364617  0.08583448    -0.57200
O1636       O  0.90269163  0.48914970  0.11724182    -0.93900
O1637       O  0.88269265  0.94491617  0.08124334    -0.92300
O1638       O  0.96176411  0.93760867  0.16604582    -0.92600
O1639       O  0.97406058  0.48716953  0.20708122    -0.91400
C1640       C  0.88022455  0.96177656  0.10535731     1.17600
H1641       H  0.96380481  0.93890696  0.07302993     0.33600
H1642       H  0.51114331  0.54759405  0.14493013     0.44400
H1643       H  0.91661477  0.99547062  0.02296507     0.38000
H1644       H  0.53331816  0.54440021  0.97122016     0.34400
H1645       H  0.53184434  0.50054973  0.20279435     0.26200
H1646       H  0.55939349  0.61738125  0.01344076     0.32200
H1647       H  0.02279170  0.59381764  0.95984750     0.38100
H1648       H  0.93994522  0.92906666  0.16537991     0.32500
H1649       H  0.89457723  0.90955160  0.11624667     0.31400
H1650       H  0.86650026  0.91209454  0.00036470     0.33100
H1651       H  0.93036881  0.51412654  0.90833987     0.32100
H1652       H  0.97309653  0.50398036  0.20763701     0.36100
H1653       H  0.96184663  0.54320609  0.18832472     0.28800
H1654       H  0.53650353  0.97601466  0.95143563     0.33000
H1655       H  0.99728978  0.51790096  0.90433422     0.35900
H1656       H  0.87316778  0.89126463  0.07516893     0.28500
H1657       H  0.94215345  0.55060982  0.16683979     0.41400
H1658       H  0.58738781  0.57313385  0.11441572     0.31400
H1659       H  0.55125146  0.53079993  0.17390387     0.39000
H1660       H  0.92548997  0.97723772  0.92451626     0.30900
H1661       H  0.58949183  0.62816961  0.03761349     0.30900
H1662       H  0.52490998  0.49470961  0.92099567     0.31200
Zr1663     Zr  0.51229793  0.99045805  0.59785751     2.17500
O1664       O  0.52652526  0.97913738  0.66492496    -0.51200
O1665       O  0.53513675  0.97299673  0.55616929    -0.74400
O1666       O  0.97200655  0.93581035  0.61330836    -0.81100
O1667       O  0.59011956  0.57642214  0.60737210    -0.82900
O1668       O  0.92633415  0.91584686  0.57991853    -0.78500
O1669       O  0.56694326  0.52759014  0.63107056    -0.90100
O1670       O  0.53237956  0.97943769  0.48341568    -0.76100
O1671       O  0.98203796  0.96894476  0.52986152    -0.85600
O1672       O  0.54282316  0.52731825  0.54255939    -0.85300
O1673       O  0.96380494  0.98034283  0.61139650    -0.72000
O1674       O  0.52378941  0.53724188  0.62362131    -0.84200
Zr1675     Zr  0.97262048  0.54045026  0.51541600     2.26400
Zr1676     Zr  0.93477251  0.95926471  0.54412158     2.06300
Zr1677     Zr  0.55162195  0.57311215  0.56426057     2.10000
Zr1678     Zr  0.01261221  0.00769038  0.47499301     1.78800
O1679       O  0.57683269  0.61693793  0.61490976    -0.93000
O1680       O  0.98049411  0.96144850  0.42805331    -0.40800
O1681       O  0.51931987  0.54968950  0.50005965    -0.77400
O1682       O  0.96456722  0.99714851  0.48707565    -0.96100
O1683       O  0.94436166  0.50489650  0.57448315    -0.89400
O1684       O  0.00545502  0.56528696  0.57837552    -0.92300
C1685       C  0.53990821  0.97113017  0.51569267     1.01500
C1686       C  0.59043572  0.55701254  0.62850318     1.14400
C1687       C  0.94308944  0.91318229  0.60398802     1.05200
O1688       O  0.91262605  0.91937757  0.48757253    -0.94400
O1689       O  0.89678050  0.95798992  0.50391576    -0.90200
O1690       O  0.91850385  0.50370607  0.49001825    -0.83300
C1691       C  0.89606913  0.97798820  0.48589877     1.11800
O1692       O  0.98595542  0.52389312  0.71279015    -0.96400
Zr1693     Zr  0.97735348  0.52984592  0.63700920     1.88900
O1694       O  0.95079721  0.55933517  0.55556567    -0.73000
O1695       O  0.88705267  0.92926408  0.58747043    -0.52300
O1696       O  0.92151116  0.98846823  0.66765120    -0.97000
O1697       O  0.50965461  0.57472926  0.68446538    -0.54200
O1698       O  0.95099183  0.55031471  0.62793059    -0.73600
C1699       C  0.94475266  0.56006345  0.59584129     0.98800
O1700       O  0.96635018  0.55398341  0.44310205    -0.62400
O1701       O  0.59688942  0.59984611  0.51635740    -0.57200
O1702       O  0.01121484  0.59558489  0.49621270    -0.93900
O1703       O  0.55813770  0.61468799  0.52615465    -0.92300
O1704       O  0.55918128  0.54026435  0.44040264    -0.92600
O1705       O  0.00767926  0.51736156  0.40390066    -0.91400
C1706       C  0.54068722  0.61692158  0.50318071     1.17600
H1707       H  0.56241847  0.53217061  0.53783525     0.33600
H1708       H  0.95258766  0.98937773  0.46015794     0.44400
H1709       H  0.51000819  0.58363543  0.58790816     0.38000
H1710       H  0.95259494  0.96520306  0.63467784     0.34400
H1711       H  0.99406311  0.96616483  0.40299704     0.26200
H1712       H  0.89365599  0.92939205  0.61757737     0.32200
H1713       H  0.91334808  0.48258440  0.66012779     0.38100
H1714       H  0.57392312  0.53884667  0.45457093     0.32500
H1715       H  0.60380248  0.58776520  0.51840720     0.31400
H1716       H  0.59797933  0.63319757  0.60261508     0.33100
H1717       H  0.00589021  0.59160063  0.66643371     0.32100
H1718       H  0.99141452  0.01644114  0.39683406     0.36100
H1719       H  0.95758052  0.53557478  0.42429640     0.28800
H1720       H  0.52342416  0.96010244  0.65879052     0.33000
H1721       H  0.99336136  0.51224005  0.71088540     0.35900
H1722       H  0.58821886  0.59559940  0.48636012     0.28500
H1723       H  0.94929441  0.55449037  0.44609240     0.41400
H1724       H  0.92799505  0.91655017  0.48426870     0.31400
H1725       H  0.97834258  0.94511814  0.44451910     0.39000
H1726       H  0.52993097  0.57966981  0.68627728     0.30900
H1727       H  0.88166801  0.94268050  0.58945441     0.30900
H1728       H  0.00764261  0.97774888  0.68691773     0.31200
C1729       C  0.81883489  0.92529762  0.42289132    -0.05300
C1730       C  0.80565339  0.93857757  0.43419829     0.08900
C1731       C  0.82285928  0.96595630  0.45996474    -0.02700
C1732       C  0.85271898  0.97938776  0.47597464    -0.00900
C1733       C  0.86591311  0.96579563  0.46558768    -0.04500
C1734       C  0.84911221  0.93920677  0.43770489     0.02500
C1735       C  0.77288007  0.92292254  0.42118626     0.09300
C1736       C  0.80914899  0.97961176  0.47116318     0.35200
C1737       C  0.86316423  0.92649500  0.42319987     0.38600
C1738       C  0.74831409  0.90265216  0.45088627    -0.04900
C1739       C  0.71771326  0.88989211  0.44062393     0.02200
C1740       C  0.71137131  0.89672772  0.40006594    -0.04500
C1741       C  0.73600955  0.91747519  0.37095152    -0.00700
C1742       C  0.76670125  0.93037392  0.38116159    -0.03300
C1743       C  0.75478359  0.89571779  0.49263222     0.36000
C1744       C  0.73004064  0.92778636  0.33275936     0.39600
C1745       C  0.69288384  0.87030550  0.47229176     0.38700
C1746       C  0.79212627  0.95234257  0.35149452     0.35600
C1747       C  0.80072210  0.89669511  0.39720233     0.36300
C1748       C  0.86888771  0.00629831  0.50480192     0.39600
N1749       N  0.67312842  0.85474757  0.49761552    -0.38500
N1750       N  0.75999314  0.89030870  0.52600081    -0.40100
N1751       N  0.72474328  0.93644803  0.30339648    -0.37800
N1752       N  0.81241766  0.96996704  0.32787091    -0.40200
N1753       N  0.79790860  0.99019728  0.47992601    -0.40000
N1754       N  0.88114582  0.02777840  0.52767999    -0.37600
N1755       N  0.86790265  0.40493011  0.43151315    -0.38700
N1756       N  0.78608669  0.87371571  0.37705669    -0.40300
C1757       C  0.60158869  0.90345136  0.49236014    -0.05300
C1758       C  0.60140971  0.92391809  0.46656271     0.08900
C1759       C  0.61532417  0.93246253  0.42489605    -0.02700
C1760       C  0.62832118  0.91989736  0.40856045    -0.00900
C1761       C  0.62394136  0.89516358  0.43106144    -0.04500
C1762       C  0.61317136  0.88949196  0.47520028     0.02500
C1763       C  0.58589680  0.93594998  0.48254863     0.09300
C1764       C  0.61547114  0.95363600  0.39796450     0.35200
C1765       C  0.61648259  0.87199051  0.50498328     0.38600
C1766       C  0.60374291  0.96798440  0.49283739    -0.04900
C1767       C  0.58864512  0.97947629  0.50362307     0.02200
C1768       C  0.55571241  0.95892696  0.50536045    -0.04500
C1769       C  0.53791894  0.92699593  0.49547962    -0.00700
C1770       C  0.55292232  0.91553708  0.48410793    -0.03300
C1771       C  0.63759859  0.98925712  0.49117666     0.36000
C1772       C  0.50408936  0.90619513  0.49522474     0.39600
C1773       C  0.60685613  0.01266616  0.51114675     0.38700
C1774       C  0.53440373  0.88288153  0.47234764     0.35600
C1775       C  0.58977779  0.89682381  0.53685619     0.36300
C1776       C  0.64707493  0.93364610  0.36903449     0.39600
N1777       N  0.62146169  0.53769218  0.51532757    -0.38500
N1778       N  0.66459911  0.00629759  0.48940771    -0.40100
N1779       N  0.97895717  0.89279050  0.50961106    -0.37800
N1780       N  0.51982076  0.85686001  0.46294295    -0.40200
N1781       N  0.61553254  0.97043085  0.37642229    -0.40000
N1782       N  0.66173871  0.94465109  0.33734531    -0.37600
N1783       N  0.61894981  0.85823882  0.52962109    -0.38700
N1784       N  0.58023384  0.89152732  0.57225171    -0.40300
C1785       C  0.57755411  0.70204823  0.49791259    -0.05300
C1786       C  0.57978656  0.70714599  0.45231357     0.08900
C1787       C  0.56987783  0.68273075  0.42317541    -0.02700
C1788       C  0.55701349  0.65312023  0.43959042    -0.00900
C1789       C  0.55519399  0.64819175  0.48531526    -0.04500
C1790       C  0.56656297  0.67316139  0.51432116     0.02500
C1791       C  0.59222833  0.73824846  0.43523825     0.09300
C1792       C  0.57264926  0.68812710  0.37633465     0.35200
C1793       C  0.56659647  0.66908377  0.56122729     0.38600
C1794       C  0.62407737  0.76152441  0.42475536    -0.04900
C1795       C  0.63627377  0.79160205  0.41152926     0.02200
C1796       C  0.61662641  0.79899743  0.40963941    -0.04500
C1797       C  0.58410496  0.77454269  0.41781907    -0.03700
C1798       C  0.57221451  0.74461752  0.43074546    -0.03300
C1799       C  0.64442580  0.75447500  0.42844705     0.36000
C1800       C  0.56220761  0.77945296  0.41190968     0.39600
C1801       C  0.66910892  0.81428476  0.40040598     0.38700
C1802       C  0.53916816  0.72018692  0.43996511     0.35600
C1803       C  0.58536151  0.72614338  0.52799617     0.36300
C1804       C  0.54649400  0.62802685  0.40944775     0.39600
N1805       N  0.69528079  0.83118145  0.39095440    -0.38500
N1806       N  0.66050411  0.74869682  0.43149302    -0.40100
N1807       N  0.54468413  0.78331394  0.40740627    -0.37800
N1808       N  0.51283766  0.70067349  0.44738855    -0.40200
N1809       N  0.57505782  0.69269485  0.33901251    -0.40000
N1810       N  0.03417312  0.60907774  0.38829511    -0.37600
N1811       N  0.56699974  0.66607899  0.59863533    -0.38700
N1812       N  0.59095844  0.74506726  0.55206263    -0.40300
C1813       C  0.57052265  0.67725255  0.19429259    -0.05300
C1814       C  0.55804707  0.69099859  0.18119678     0.08900
C1815       C  0.53381820  0.67559876  0.14973001    -0.02700
C1816       C  0.52252560  0.64703717  0.13087726    -0.00900
C1817       C  0.53573195  0.63370028  0.14264448    -0.04500
C1818       C  0.55957286  0.64882329  0.17499765     0.02500
C1819       C  0.57312798  0.72358978  0.19587291     0.09300
C1820       C  0.52148544  0.69001572  0.13530371     0.35200
C1821       C  0.57262360  0.63503996  0.18898602     0.38600
C1822       C  0.59613667  0.74908199  0.16913175    -0.04900
C1823       C  0.60945021  0.77974465  0.18064269     0.02200
C1824       C  0.60090419  0.78555804  0.22005613    -0.04500
C1825       C  0.57749944  0.76005265  0.24648309    -0.00700
C1826       C  0.56350064  0.72912224  0.23438378    -0.03300
C1827       C  0.60530463  0.74351927  0.12871638     0.36000
C1828       C  0.56628316  0.76554182  0.28430737     0.39600
C1829       C  0.63103985  0.80522580  0.15080629     0.38700
C1830       C  0.53818540  0.70297496  0.26031861     0.35600
C1831       C  0.59534501  0.69302270  0.22674910     0.36300
C1832       C  0.49815621  0.63214527  0.09779373     0.39600
N1833       N  0.64814715  0.82552075  0.12690592    -0.38500
N1834       N  0.61240782  0.73891505  0.09641445    -0.40100
N1835       N  0.55700565  0.77006007  0.31393199    -0.37800
N1836       N  0.51779305  0.68226881  0.28103887    -0.40200
N1837       N  0.51194175  0.70177042  0.12363739    -0.40000
N1838       N  0.97314229  0.61820306  0.08439205    -0.37600
N1839       N  0.58318252  0.62422785  0.20043212    -0.38700
N1840       N  0.61519702  0.70584827  0.25260656    -0.40300
C1841       C  0.79476394  0.92440762  0.11244375    -0.05300
C1842       C  0.78918174  0.91905069  0.15797327     0.08900
C1843       C  0.81318625  0.92638889  0.18575594    -0.02700
C1844       C  0.84306819  0.94080943  0.16863440    -0.00900
C1845       C  0.84877856  0.94665880  0.12329246    -0.04500
C1846       C  0.82414994  0.93724080  0.09503534     0.02500
C1847       C  0.75829391  0.90637417  0.17689363     0.09300
C1848       C  0.80690939  0.91849165  0.23185154     0.35200
C1849       C  0.82909759  0.94064186  0.04802096     0.38600
C1850       C  0.73516461  0.87447028  0.18726055    -0.04900
C1851       C  0.70654626  0.86281589  0.20650410     0.02200
C1852       C  0.69918620  0.88235615  0.21128154    -0.04500
C1853       C  0.72327430  0.91484096  0.20182299    -0.00700
C1854       C  0.75258737  0.92661995  0.18557177    -0.03300
C1855       C  0.74054600  0.85338166  0.17660981     0.36000
C1856       C  0.71876365  0.93690925  0.20973676     0.39600
C1857       C  0.68557000  0.83086085  0.22180999     0.38700
C1858       C  0.77703321  0.95980692  0.17717952     0.35600
C1859       C  0.77024472  0.91670968  0.08353227     0.36300
C1860       C  0.86770445  0.94856374  0.19737064     0.39600
N1861       N  0.66992689  0.80552250  0.23479684    -0.38500
N1862       N  0.74480582  0.83662189  0.16746077    -0.40100
N1863       N  0.71541473  0.95470071  0.21597815    -0.37800
N1864       N  0.79655971  0.98624711  0.17049476    -0.40200
N1865       N  0.80177030  0.91171477  0.26849133    -0.40000
N1866       N  0.88746736  0.95470465  0.21999917    -0.37600
N1867       N  0.83320326  0.94308673  0.01055528    -0.38700
N1868       N  0.75076016  0.91073387  0.06041540    -0.40300
C1869       C  0.57392074  0.94322284  0.16825375    -0.05300
C1870       C  0.56525534  0.91685941  0.14531053     0.08900
C1871       C  0.54730854  0.90714668  0.10656846    -0.02700
C1872       C  0.53808808  0.92350905  0.09092892    -0.00900
C1873       C  0.54513517  0.94885208  0.11520491    -0.04500
C1874       C  0.56424468  0.95931673  0.15310458     0.02500
C1875       C  0.57703921  0.90079181  0.16005524     0.09300
C1876       C  0.53833169  0.88016347  0.08261412     0.35200
C1877       C  0.57744271  0.49075044  0.16520023     0.38600
C1878       C  0.56337682  0.88017190  0.19593195    -0.04900
C1879       C  0.57555523  0.86635461  0.21069985     0.02200
C1880       C  0.60262398  0.87394864  0.19083305    -0.04500
C1881       C  0.61244740  0.89031923  0.15035036    -0.00700
C1882       C  0.60098438  0.90500105  0.13659399    -0.03300
C1883       C  0.53646882  0.87285907  0.21748470     0.36000
C1884       C  0.63049491  0.88852491  0.11924690     0.39600
C1885       C  0.55939221  0.84352948  0.24573595     0.38700
C1886       C  0.61351727  0.92413538  0.09745861     0.35600
C1887       C  0.59332470  0.95413491  0.20719357     0.36300
C1888       C  0.52232523  0.91470574  0.04891435     0.39600
N1889       N  0.54662432  0.82537137  0.27368213    -0.38500
N1890       N  0.51495426  0.86681023  0.23484313    -0.40100
N1891       N  0.64460822  0.88705083  0.09376658    -0.37800
N1892       N  0.62326566  0.93922508  0.06610165    -0.40200
N1893       N  0.53130046  0.85871771  0.06343490    -0.40000
N1894       N  0.01021908  0.90721574  0.01044123    -0.37600
N1895       N  0.58665548  0.51373716  0.18207231    -0.38700
N1896       N  0.60873527  0.96278990  0.23831870    -0.40300
C1897       C  0.89100415  0.57132245  0.64637916    -0.05300
C1898       C  0.90451638  0.60120204  0.63085300     0.08900
C1899       C  0.92943813  0.61639352  0.60082091    -0.02700
C1900       C  0.94203770  0.60261994  0.58835042    -0.00900
C1901       C  0.92991948  0.57352907  0.60623221    -0.04500
C1902       C  0.90382282  0.55765490  0.63462210     0.02500
C1903       C  0.89317165  0.61717872  0.64742807     0.09300
C1904       C  0.94204016  0.64626797  0.58273200     0.35200
C1905       C  0.88956472  0.52691166  0.65111479     0.38600
C1906       C  0.90712199  0.63660410  0.68467293    -0.04900
C1907       C  0.89635107  0.65143027  0.70090515     0.02200
C1908       C  0.86975113  0.64528780  0.68178507    -0.04500
C1909       C  0.85908723  0.62931543  0.64058378    -0.00700
C1910       C  0.86967651  0.61414608  0.62487356    -0.03300
C1911       C  0.93254007  0.64106749  0.70662371     0.36000
C1912       C  0.84046363  0.63141026  0.61121511     0.39600
C1913       C  0.91366151  0.67375368  0.73657221     0.38700
C1914       C  0.85645813  0.59526956  0.58524781     0.35600
C1915       C  0.86351802  0.55451481  0.67396151     0.36300
C1916       C  0.96815318  0.61905182  0.55818459     0.39600
N1917       N  0.92746148  0.69126024  0.76529711    -0.38500
N1918       N  0.95273388  0.64450496  0.72410295    -0.40100
N1919       N  0.82594759  0.63300143  0.58676420    -0.37800
N1920       N  0.84601814  0.57997490  0.55386804    -0.40200
N1921       N  0.95188625  0.66999600  0.56814037    -0.40000
N1922       N  0.98886454  0.63221921  0.53392039    -0.37600
N1923       N  0.87796077  0.50237710  0.66452748    -0.38700
N1924       N  0.84137312  0.54113320  0.69551492    -0.40300
C1925       C  0.91355678  0.78886167  0.68596678    -0.05300
C1926       C  0.89225623  0.79336014  0.67834217     0.08900
C1927       C  0.86076847  0.76974418  0.69012341    -0.02700
C1928       C  0.85003604  0.74089270  0.70683437    -0.00900
C1929       C  0.87088048  0.73499432  0.71120553    -0.04500
C1930       C  0.90319968  0.76030731  0.70311329     0.02500
C1931       C  0.90337207  0.82362248  0.65948002     0.09300
C1932       C  0.83924387  0.77521124  0.68458081     0.35200
C1933       C  0.92637895  0.75771723  0.71366289     0.38600
C1934       C  0.89875530  0.82577869  0.61467935    -0.04900
C1935       C  0.91110167  0.85481700  0.59655024     0.02200
C1936       C  0.92809480  0.88198110  0.62319636    -0.04500
C1937       C  0.93102364  0.87926200  0.66861420    -0.00700
C1938       C  0.91873881  0.85026359  0.68653389    -0.03300
C1939       C  0.88116301  0.79803517  0.58721507     0.36000
C1940       C  0.94538311  0.90588103  0.69765050     0.39600
C1941       C  0.90686017  0.85668040  0.55021316     0.38700
C1942       C  0.92138666  0.84763707  0.73317660     0.35600
C1943       C  0.94629139  0.81363622  0.67532035     0.36300
C1944       C  0.81753309  0.71828853  0.71960010     0.39600
N1945       N  0.90324142  0.85782732  0.51321187    -0.38500
N1946       N  0.86688051  0.77593144  0.56520875    -0.40100
N1947       N  0.95637062  0.92663039  0.72161149    -0.37800
N1948       N  0.92343711  0.84559453  0.77042477    -0.40200
N1949       N  0.82209248  0.77954390  0.68002676    -0.40000
N1950       N  0.79164039  0.70158399  0.73047521    -0.37600
N1951       N  0.94496311  0.75577437  0.72199796    -0.38700
N1952       N  0.97237634  0.83337115  0.66672508    -0.40300
C1953       C  0.73668351  0.63141856  0.66204992    -0.05300
C1954       C  0.71326428  0.61104670  0.69310216     0.08900
C1955       C  0.72089971  0.60343602  0.73146304    -0.02700
C1956       C  0.75196038  0.61658318  0.73895443    -0.00900
C1957       C  0.77546626  0.63756283  0.70855454    -0.04500
C1958       C  0.76770545  0.64452786  0.66960327     0.02500
C1959       C  0.68010378  0.59537522  0.68267928     0.09300
C1960       C  0.69653266  0.58066807  0.76177484     0.35200
C1961       C  0.79145587  0.66460263  0.63685867     0.38600
C1962       C  0.66069558  0.56564733  0.66275355    -0.04900
C1963       C  0.63073316  0.55229383  0.64738312     0.02200
C1964       C  0.62029958  0.56920020  0.65033536    -0.04500
C1965       C  0.63934985  0.59837597  0.67268839    -0.00700
C1966       C  0.66911936  0.61135244  0.68872765    -0.03300
C1967       C  0.67235179  0.54949223  0.65617869     0.36000
C1968       C  0.62817872  0.61480926  0.68052676     0.39600
C1969       C  0.61128735  0.52141346  0.62764597     0.38700
C1970       C  0.68899262  0.64160478  0.71046578     0.35600
C1971       C  0.72837880  0.63765321  0.62140583     0.36300
C1972       C  0.75935333  0.60614517  0.77538060     0.39600
N1973       N  0.59010214  0.99474482  0.61395208    -0.38500
N1974       N  0.68193110  0.53690388  0.65085442    -0.40100
N1975       N  0.61958004  0.62815786  0.68744638    -0.37800
N1976       N  0.70505728  0.66575363  0.72772044    -0.40200
N1977       N  0.67712276  0.56212073  0.78572429    -0.40000
N1978       N  0.76572080  0.59739380  0.80319089    -0.37600
N1979       N  0.81025620  0.68045787  0.61051311    -0.38700
N1980       N  0.72132904  0.64221153  0.58903908    -0.40300
C1981       C  0.92803077  0.61204500  0.96747819    -0.05300
C1982       C  0.89830113  0.59900733  0.98314231     0.08900
C1983       C  0.88280694  0.57401821  0.01302279    -0.02700
C1984       C  0.89601581  0.56073378  0.02496963    -0.00900
C1985       C  0.92502692  0.57243085  0.00697688    -0.04500
C1986       C  0.94137882  0.59893194  0.97933117     0.02500
C1987       C  0.88242240  0.61024785  0.96570428     0.09300
C1988       C  0.85318151  0.56206531  0.03140763     0.35200
C1989       C  0.97267719  0.61378085  0.96463484     0.38600
C1990       C  0.86361663  0.59619363  0.92791760    -0.04900
C1991       C  0.84950233  0.60721998  0.90999550     0.02200
C1992       C  0.85585455  0.63420132  0.92788370    -0.04500
C1993       C  0.87063445  0.64475792  0.96981492    -0.00700
C1994       C  0.88500944  0.63380208  0.98747373    -0.03300
C1995       C  0.85895070  0.57033280  0.90711489     0.36000
C1996       C  0.86791060  0.66364049  0.99759472     0.39600
C1997       C  0.82771728  0.58983637  0.87378733     0.38700
C1998       C  0.90229716  0.64651994  0.02837907     0.35600
C1999       C  0.94501840  0.63929077  0.93944103     0.36300
C2000       C  0.87926364  0.53470989  0.05522568     0.39600
N2001       N  0.81066125  0.57602922  0.84463962    -0.38500
N2002       N  0.85519109  0.54975305  0.89032947    -0.40100
N2003       N  0.86551414  0.67840854  0.02018122    -0.37800
N2004       N  0.91615947  0.65660698  0.06097122    -0.40200
N2005       N  0.82969332  0.55286629  0.04616900    -0.40000
N2006       N  0.86577852  0.51416251  0.07973800    -0.37600
N2007       N  0.99777143  0.62587833  0.95317967    -0.38700
N2008       N  0.95859832  0.66117644  0.91736869    -0.40300
C2009       C  0.90009855  0.78349354  0.88918175    -0.05300
C2010       C  0.88792733  0.78817172  0.92535286     0.08900
C2011       C  0.86226466  0.76191043  0.94860897    -0.02700
C2012       C  0.84992172  0.73157417  0.93706865    -0.00900
C2013       C  0.86161963  0.72695220  0.90030000    -0.04500
C2014       C  0.88667016  0.75295314  0.87641902     0.02500
C2015       C  0.90274856  0.82064573  0.94020120     0.09300
C2016       C  0.84886700  0.76615076  0.98499193     0.35200
C2017       C  0.89983540  0.74826777  0.84038416     0.38600
C2018       C  0.90075497  0.83983556  0.91398126    -0.04900
C2019       C  0.91412439  0.87004637  0.92866585     0.02200
C2020       C  0.92857973  0.88079171  0.97024626    -0.04500
C2021       C  0.92934895  0.86116750  0.99719715    -0.00700
C2022       C  0.91773290  0.83183105  0.98157827    -0.03300
C2023       C  0.88423675  0.82814196  0.87241663     0.36000
C2024       C  0.94037492  0.87041045  0.04212311     0.39600
C2025       C  0.91230794  0.88976119  0.90155372     0.38700
C2026       C  0.92110739  0.81311570  0.00838897     0.35600
C2027       C  0.92722133  0.81010784  0.86609752     0.36300
C2028       C  0.82561803  0.70511498  0.96372134     0.39600
N2029       N  0.91074878  0.90543143  0.87994621    -0.38500
N2030       N  0.87102090  0.81862449  0.83928989    -0.40100
N2031       N  0.94868667  0.87762003  0.07812427    -0.37800
N2032       N  0.92379344  0.79827431  0.03001523    -0.40200
N2033       N  0.83844580  0.76967448  0.01422762    -0.40000
N2034       N  0.80623685  0.68399411  0.98492157    -0.37600
N2035       N  0.91044795  0.74429502  0.81207611    -0.38700
N2036       N  0.94886686  0.83125493  0.84754662    -0.40300
C2037       C  0.71070115  0.58569065  0.91560390    -0.05300
C2038       C  0.70488701  0.60606833  0.92176649     0.08900
C2039       C  0.72796186  0.63761368  0.90988178    -0.02700
C2040       C  0.75757185  0.64937587  0.89479994    -0.00900
C2041       C  0.76509147  0.62976615  0.89303219    -0.04500
C2042       C  0.74038700  0.59722471  0.90157491     0.02500
C2043       C  0.67467115  0.59427337  0.94209586     0.09300
C2044       C  0.72130095  0.65825523  0.91400876     0.35200
C2045       C  0.74469495  0.57485529  0.89555086     0.38600
C2046       C  0.67080506  0.59075750  0.98804507    -0.04900
C2047       C  0.64178427  0.57764022  0.00723333     0.02200
C2048       C  0.61644028  0.56818253  0.98063693    -0.04500
C2049       C  0.62058671  0.57247991  0.93477800    -0.00700
C2050       C  0.64965815  0.58575247  0.91565758    -0.03300
C2051       C  0.69692646  0.60096412  0.01554998     0.36000
C2052       C  0.59496040  0.56351962  0.90722010     0.39600
C2053       C  0.63765604  0.57278594  0.05419625     0.38700
C2054       C  0.65402299  0.59113910  0.86882211     0.35600
C2055       C  0.68587527  0.55256906  0.92401233     0.36300
C2056       C  0.77960802  0.68187582  0.88199650     0.39600
N2057       N  0.63435199  0.56874243  0.09164567    -0.38500
N2058       N  0.71792448  0.60932584  0.03730692    -0.40100
N2059       N  0.57453489  0.55637952  0.88518802    -0.37800
N2060       N  0.65755832  0.59584973  0.83152661    -0.40200
N2061       N  0.71606691  0.67477410  0.91712230    -0.40000
N2062       N  0.79609386  0.70780614  0.87139260    -0.37600
N2063       N  0.74766619  0.55663839  0.89129671    -0.38700
N2064       N  0.66605986  0.52615057  0.93050536    -0.40300
loop_ 
_geom_bond_atom_site_label_1 
_geom_bond_atom_site_label_2 
_geom_bond_distance 
_geom_bond_site_symmetry_2 
_ccdc_geom_bond_type 
C1            C2   1.538       .  S
C1            C7   1.537       .  S
C1            C5   1.537       .  S
C1          C444   1.568       .  S
C2            H9   1.082       .  S
C2            C3   1.363       .  D
C3            C4   1.546       .  S
C3          C465   1.484       .  S
C4            C8   1.552       .  S
C4            C6   1.556       .  S
C4           H10   1.101       .  S
C5           H11   1.084       .  S
C5            C6   1.378       .  D
C6          C493   1.532       .  S
C7           H12   1.080       .  S
C7            C8   1.372       .  D
C8           C20   1.520       .  S
C13          C14   1.535       .  S
C13          C19   1.538       .  S
C13          C17   1.534       .  S
C13         C360   1.561       .  S
C14          H21   1.082       .  S
C14          C15   1.361       .  D
C15          C16   1.547       .  S
C15         C409   1.481       .  S
C16          C20   1.550       .  S
C16          C18   1.556       .  S
C16          H22   1.102       .  S
C17          H23   1.084       .  S
C17          C18   1.376       .  D
C18         C381   1.528       .  S
C19          H24   1.080       .  S
C19          C20   1.371       .  D
C25          C26   1.545       .  S
C25          C31   1.539       .  S
C25          C29   1.525       .  S
C25         C332   1.567       .  S
C26          H33   1.075       .  S
C26          C27   1.377       .  D
C27          C28   1.553       .  S
C27         C304   1.520       .  S
C28          C32   1.550       .  S
C28          C30   1.549       .  S
C28          H34   1.103       .  S
C29          H35   1.087       .  S
C29          C30   1.360       .  D
C30         C276   1.491       .  S
C31          H36   1.081       .  S
C31          C32   1.375       .  D
C32          C44   1.522       .  S
C37          C38   1.546       .  S
C37          C43   1.535       .  S
C37          C41   1.528       .  S
C37         C213   1.562       .  S
C38          H45   1.080       .  S
C38          C39   1.379       .  D
C39          C40   1.557       .  S
C39         C248   1.522       .  S
C40          C44   1.557       .  S
C40          C42   1.553       .  S
C40          H46   1.103       .  S
C41          H47   1.086       .  S
C41          C42   1.363       .  D
C42         C192   1.500       .  S
C43          H48   1.080       .  S
C43          C44   1.367       .  D
Zr49         O50   2.438   1_554  S
Zr49         O51   2.453       .  S
Zr49        O568   2.443   1_554  S
Zr49       O1087   2.435   1_454  S
Zr49        O573   2.378       .  S
Zr49       O1090   2.380   1_455  S
Zr49        O575   2.413   1_554  S
Zr49       O1092   2.415   1_454  S
O50         H106   0.991       .  S
O50         H630   0.990       .  S
O51          C71   1.288       .  A
O52        Zr565   2.436   1_546  S
O52          C73   1.285   1_556  A
O53         Zr63   2.426       .  S
O53          C72   1.283   1_554  A
O54         Zr62   2.447       .  S
O54          C73   1.288       .  A
O55       Zr1081   2.444   1_556  S
O55          C72   1.287       .  A
O56       Zr1612   2.438   1_455  S
O56          C71   1.286       .  A
O57         Zr62   2.392       .  S
O57        Zr565   2.384   1_545  S
O57       Zr1096   2.375   1_445  S
O58         Zr63   2.392       .  S
O58       Zr1081   2.380       .  S
O58        Zr580   2.365       .  S
O58          H93   0.965       .  S
O59         Zr62   2.400   1_556  S
O59        Zr565   2.417   1_546  S
O59       Zr1111   2.401   1_455  S
O59          H96   0.966       .  S
O60         Zr63   2.391   1_556  S
O60       Zr1081   2.410   1_556  S
O60        Zr595   2.408       .  S
Zr61         O86   2.439       .  S
Zr61         O80   2.441       .  S
Zr61         O88   2.439   1_545  S
Zr61         O76   2.433       .  S
Zr61         O69   2.386       .  S
Zr61         O70   2.383   1_545  S
Zr61        O583   2.400   1_545  S
Zr61       O1100   2.412       .  S
Zr62         O81   2.436       .  S
Zr62         O74   2.434       .  S
Zr62         O75   2.442       .  S
Zr62         O68   2.400       .  S
Zr62       O1101   2.396   1_455  S
Zr63         O65   2.434   1_554  S
Zr63         O87   2.437       .  S
Zr63         O89   2.434       .  S
Zr63         O67   2.397       .  S
Zr63        O586   2.386       .  S
Zr64         O91   2.435       .  S
Zr64        O606   2.435       .  S
Zr64       O1098   2.434   1_565  S
Zr64       O1604   2.435       .  S
Zr64       O1089   2.377   1_565  S
Zr64        O574   2.370       .  S
Zr64        O583   2.398       .  S
Zr64       O1100   2.401   1_565  S
O65         H102   0.990       .  S
O66       Zr1096   2.433   1_445  S
O66          H97   0.990       .  S
O66         H111   0.989       .  S
O67        Zr577   2.405       .  S
O67        Zr580   2.400       .  S
O68       Zr1093   2.415   1_455  S
O68       Zr1096   2.401   1_445  S
O68          H94   0.967       .  S
O69         Zr79   2.373   1_554  S
O69       Zr1094   2.399       .  S
O70         Zr79   2.376   1_564  S
O70        Zr579   2.387       .  S
O70         H611   0.965       .  S
C71         C325   1.510       .  S
C72         C472   1.481       .  S
C73         C500   1.488   1_554  S
O74         H110   0.990       .  S
O75          C77   1.287       .  A
O76        C1109   1.285       .  A
C77        O1108   1.285   1_455  A
C77         C269   1.494       .  S
O78         Zr79   2.436       .  S
O78         H107   0.990       .  S
Zr79       O1114   2.434       .  S
Zr79        O599   2.437   1_545  S
Zr79         O84   2.441       .  S
Zr79       O1091   2.398   1_556  S
Zr79        O576   2.405   1_545  S
O80          C85   1.286       .  A
O81          H98   0.990       .  S
O81         H113   0.990       .  S
O82       Zr1111   2.436   1_455  S
O82        H1131   0.990       .  S
O83        Zr595   2.440       .  S
O83         H112   0.989       .  S
O83         H619   0.990       .  S
O84          C85   1.286   1_556  A
C85         C437   1.505       .  S
O86         H105   0.990       .  S
O86         H109   0.990       .  S
O87         H101   0.990       .  S
O87         H108   0.990       .  S
O88         C608   1.286       .  A
O89          C92   1.284       .  A
O90        Zr580   2.435       .  S
O90         H100   0.990       .  S
O91         H104   0.990   1_565  S
C92         O604   1.286       .  A
C92         C297   1.487       .  S
H95         O586   0.965       .  S
H99        O1114   0.989       .  S
H103        O599   0.990       .  S
H114        O566   0.990       .  S
Zr115       O116   2.439       .  S
Zr115       O117   2.439       .  S
Zr115      O1150   2.431   1_455  S
Zr115       O637   2.414       .  S
Zr115      O1155   2.380   1_455  S
Zr115       O640   2.379       .  S
Zr115      O1157   2.410   1_455  S
Zr115       O642   2.405       .  S
O116        H172   0.990       .  S
O116       H1212   0.988       .  S
O117        C137   1.283       .  A
O118      Zr1147   2.444       .  S
O118        C139   1.286       .  A
O119       Zr129   2.448       .  S
O119        C138   1.289       .  A
O120       Zr128   2.442       .  S
O120        C139   1.286       .  A
O121       Zr631   2.415   1_545  S
O121        C138   1.281       .  A
O122      Zr1162   2.427       .  S
O122        C137   1.282       .  A
O123       Zr128   2.393       .  S
O123       Zr130   2.375       .  S
O123      Zr1147   2.378       .  S
O124       Zr129   2.388       .  S
O124       Zr631   2.380   1_545  S
O124      Zr1678   2.374       .  S
O124        H159   0.966       .  S
O125       Zr128   2.403       .  S
O125      Zr1147   2.410       .  S
O125       Zr661   2.403       .  S
O125        H162   0.967       .  S
O126       Zr129   2.391       .  S
O126       Zr631   2.407   1_545  S
O126      Zr1177   2.398   1_455  S
Zr127       O152   2.440       .  S
Zr127       O146   2.435       .  S
Zr127       O154   2.434       .  S
Zr127       O142   2.434       .  S
Zr127       O135   2.380       .  S
Zr127       O136   2.382       .  S
Zr127      O1165   2.399       .  S
Zr127       O650   2.405   1_545  S
Zr128       O147   2.435       .  S
Zr128       O140   2.433       .  S
Zr128       O141   2.442       .  S
Zr128       O134   2.402       .  S
Zr128       O651   2.392       .  S
Zr129       O131   2.433       .  S
Zr129       O153   2.436       .  S
Zr129       O155   2.442       .  S
Zr129       O133   2.394       .  S
Zr129      O1168   2.389       .  S
Zr130       O132   2.438       .  S
Zr130      O1704   2.438       .  S
Zr130       O673   2.438       .  S
Zr130      O1154   2.422       .  S
Zr130       O134   2.400       .  S
Zr130      O1672   2.378       .  S
Zr130      O1681   2.398       .  S
O131        H168   0.990       .  S
O132        H163   0.990       .  S
O132        H177   0.990       .  S
O133      Zr1159   2.402   1_455  S
O133      Zr1678   2.399       .  S
O134       Zr643   2.410       .  S
O134        H160   0.966       .  S
O135       Zr145   2.371       .  S
O135       Zr644   2.391   1_545  S
O136       Zr145   2.376       .  S
O136      Zr1161   2.392       .  S
O136       H1193   0.966       .  S
C137        C220   1.483       .  S
C138        C416   1.494       .  S
C139        C388   1.498       .  S
O140        H176   0.990       .  S
O141        C143   1.287       .  A
O142        C659   1.285   1_545  A
C143        O658   1.285       .  A
C143        C185   1.498       .  S
O144       Zr145   2.435       .  S
O144        H173   0.990       .  S
Zr145       O664   2.434   1_545  S
Zr145      O1181   2.438       .  S
Zr145       O150   2.433       .  S
Zr145       O641   2.398   1_545  S
Zr145      O1158   2.398       .  S
O146        C151   1.285       .  A
O147        H164   0.990       .  S
O147        H179   0.990       .  S
O148       Zr661   2.434       .  S
O148        H681   0.990       .  S
O149      Zr1177   2.440   1_455  S
O149        H178   0.990       .  S
O149       H1201   0.990       .  S
O150        C151   1.284       .  A
C151        C353   1.494       .  S
O152        H171   0.990       .  S
O152        H175   0.990       .  S
O153        H167   0.990       .  S
O153        H174   0.990       .  S
O154       C1190   1.285       .  A
O155        C158   1.286       .  A
O156      Zr1678   2.437       .  S
O156        H166   0.990       .  S
O157       Zr646   2.436       .  S
O157        H686   0.990       .  S
C158       O1186   1.286       .  A
C158        C241   1.490       .  S
H161       O1168   0.966       .  S
H165        O664   0.990   1_545  S
H169       O1181   0.990       .  S
H170        O673   0.990       .  S
H180       O1148   0.989       .  S
C181        C182   1.412       .  A
C181        C186   1.415       .  A
C181        C199   1.450       .  S
C182        C187   1.504       .  S
C182        C183   1.411       .  A
C183        C184   1.413       .  A
C183        C188   1.451       .  S
C184        C185   1.418       .  A
C184        C200   1.451       .  S
C185        C186   1.418       .  A
C186        C189   1.451       .  S
C187        C190   1.411       .  A
C187        C194   1.412       .  A
C188        N205   1.157       .  T
C189        N723   1.157       .  T
C190        C191   1.413       .  A
C190        C195   1.451       .  S
C191        C192   1.417       .  A
C191        C197   1.450       .  S
C192        C193   1.409       .  A
C193        C194   1.416       .  A
C193        C196   1.442       .  S
C194        C198   1.449       .  S
C195        N202   1.157       .  T
C196        N203   1.154       .  T
C197        N201   1.157       .  T
C198        N204   1.157       .  T
C199        N208   1.157       .  T
C200        N206   1.157       .  T
N207        C705   1.157       .  T
C209        C210   1.410       .  A
C209        C214   1.419       .  A
C209        C227   1.451       .  S
C210        C215   1.506       .  S
C210        C211   1.409       .  A
C211        C212   1.413       .  A
C211        C216   1.453       .  S
C212        C213   1.429       .  A
C212        C228   1.452       .  S
C213        C214   1.424       .  A
C214        C217   1.448       .  S
C215        C218   1.414       .  A
C215        C222   1.414       .  A
C216        N233   1.157       .  T
C217        N235   1.157       .  T
C218        C219   1.413       .  A
C218        C223   1.450       .  S
C219        C220   1.413       .  A
C219        C225   1.451       .  S
C220        C221   1.411       .  A
C221        C222   1.413       .  A
C221        C224   1.451       .  S
C222        C226   1.450       .  S
C223        N230   1.157       .  T
C224       N1263   1.157   1_455  T
C225        N745   1.158       .  T
C226        N232   1.157       .  T
C227        N236   1.157       .  T
C228        N234   1.158       .  T
N229        C741   1.157       .  T
N231       C1256   1.157       .  T
C237        C238   1.410       .  A
C237        C242   1.413       .  A
C237        C255   1.450       .  S
C238        C243   1.502       .  S
C238        C239   1.411       .  A
C239        C240   1.413       .  A
C239        C244   1.450       .  S
C240        C241   1.415       .  A
C240        C256   1.451       .  S
C241        C242   1.415       .  A
C242        C245   1.450       .  S
C243        C246   1.405       .  A
C243        C250   1.406       .  A
C244        N261   1.157       .  T
C245        N263   1.157       .  T
C246        C247   1.416       .  A
C246        C251   1.453       .  S
C247        C248   1.427       .  A
C247        C253   1.447       .  S
C248        C249   1.428       .  A
C249        C250   1.414       .  A
C249        C252   1.452       .  S
C250        C254   1.452       .  S
C251        N258   1.157       .  T
C252        N259   1.158       .  T
C253        N257   1.158       .  T
C254        N260   1.157       .  T
C255        N264   1.157       .  T
C256       N1294   1.157       .  T
N262       C1288   1.157       .  T
C265        C266   1.409       .  A
C265        C270   1.414       .  A
C265        C283   1.450       .  S
C266        C271   1.498       .  S
C266        C267   1.409       .  A
C267        C268   1.411       .  A
C267        C272   1.452       .  S
C268        C269   1.417       .  A
C268        C284   1.449   1_455  S
C269        C270   1.417       .  A
C270        C273   1.450       .  S
C271        C274   1.411       .  A
C271        C278   1.411       .  A
C272        N289   1.157       .  T
C273        N291   1.157       .  T
C274        C275   1.410       .  A
C274        C279   1.451       .  S
C275        C276   1.415       .  A
C275        C281   1.451       .  S
C276        C277   1.408       .  A
C277        C278   1.412       .  A
C277        C280   1.443       .  S
C278        C282   1.449       .  S
C279        N286   1.157       .  T
C280        N287   1.154       .  T
C281        N285   1.157       .  T
C282        N288   1.157       .  T
C283        N292   1.157       .  T
C284       N1322   1.156       .  T
N290       C1316   1.156       .  T
C293        C294   1.412       .  A
C293        C298   1.413       .  A
C293        C311   1.450       .  S
C294        C299   1.502       .  S
C294        C295   1.412       .  A
C295        C296   1.412       .  A
C295        C300   1.449       .  S
C296        C297   1.412       .  A
C296        C312   1.451       .  S
C297        C298   1.414       .  A
C298        C301   1.451       .  S
C299        C302   1.408       .  A
C299        C306   1.406       .  A
C300        N317   1.157       .  T
C301        N319   1.157       .  T
C302        C303   1.416       .  A
C302        C307   1.452       .  S
C303        C304   1.426       .  A
C303        C309   1.448       .  S
C304        C305   1.427       .  A
C305        C306   1.412       .  A
C305        C308   1.453       .  S
C306        C310   1.451       .  S
C307        N314   1.157       .  T
C308        N315   1.158       .  T
C309        N313   1.158       .  T
C310        N316   1.157       .  T
C311        N320   1.157       .  T
C312        N318   1.157       .  T
C321        C322   1.412       .  A
C321        C326   1.416       .  A
C321        C339   1.452       .  S
C322        C327   1.512       .  S
C322        C323   1.412       .  A
C323        C324   1.416       .  A
C323        C328   1.451       .  S
C324        C325   1.421       .  A
C324        C340   1.450       .  S
C325        C326   1.421       .  A
C326        C845   1.450       .  S
C327        C330   1.409       .  A
C327        C334   1.410       .  A
C328        N345   1.157       .  T
C329        C842   1.449       .  S
C329        N347   1.157   1_565  T
C330        C331   1.417       .  A
C330        C335   1.451       .  S
C331        C332   1.431       .  A
C331        C337   1.452       .  S
C332        C333   1.427       .  A
C333        C334   1.417       .  A
C333        C336   1.448       .  S
C334        C338   1.452       .  S
C335        N342   1.157       .  T
C336        N343   1.158       .  T
C337        N341   1.158       .  T
C338        N344   1.157       .  T
C339        N348   1.157       .  T
C340       N1378   1.157       .  T
N346       C1372   1.157       .  T
C349        C350   1.411       .  A
C349        C354   1.414       .  A
C349        C367   1.450       .  S
C350        C355   1.502       .  S
C350        C351   1.412       .  A
C351        C352   1.413       .  A
C351        C356   1.450       .  S
C352        C353   1.415       .  A
C352        C368   1.451       .  S
C353        C354   1.417       .  A
C354        C357   1.451       .  S
C355        C358   1.405       .  A
C355        C362   1.408       .  A
C356        N373   1.157       .  T
C357        N375   1.157   1_545  T
C358        C359   1.411       .  A
C358        C363   1.452       .  S
C359        C360   1.429       .  A
C359        C365   1.452       .  S
C360        C361   1.429       .  A
C361        C362   1.419       .  A
C361        C364   1.449       .  S
C362        C366   1.451       .  S
C363        N370   1.157       .  T
C364        N371   1.158       .  T
C365        N369   1.157       .  T
C366        N372   1.157       .  T
C367        N376   1.157       .  T
C368        N374   1.157       .  T
C377        C378   1.406       .  A
C377        C382   1.415       .  A
C377        C395   1.452       .  S
C378        C383   1.506       .  S
C378        C379   1.407       .  A
C379        C380   1.418       .  A
C379        C384   1.453       .  S
C380        C381   1.429       .  A
C380        C396   1.447       .  S
C381        C382   1.428       .  A
C382        C385   1.451       .  S
C383        C386   1.411       .  A
C383        C390   1.410       .  A
C384        N401   1.157       .  T
C385        N403   1.157       .  T
C386        C387   1.415       .  A
C386        C391   1.451       .  S
C387        C388   1.418       .  A
C387        C393   1.450       .  S
C388        C389   1.418       .  A
C389        C390   1.414       .  A
C389        C392   1.450       .  S
C390        C394   1.448       .  S
C391        N398   1.157       .  T
C392        N399   1.157       .  T
C393        N397   1.157       .  T
C394        N400   1.156       .  T
C395        N404   1.157       .  T
C396        N402   1.157       .  T
C405        C406   1.413       .  A
C405        C410   1.408       .  A
C405        C423   1.451       .  S
C406        C411   1.495       .  S
C406        C407   1.414       .  A
C407        C408   1.410       .  A
C407        C412   1.449       .  S
C408        C409   1.406       .  A
C408        C424   1.447       .  S
C409        C410   1.411       .  A
C410        C413   1.452       .  S
C411        C414   1.409       .  A
C411        C418   1.410       .  A
C412        N429   1.157       .  T
C413        N431   1.157       .  T
C414        C415   1.409       .  A
C414        C419   1.452       .  S
C415        C416   1.420       .  A
C415        C421   1.451       .  S
C416        C417   1.416       .  A
C417        C418   1.412       .  A
C417        C420   1.450       .  S
C418        C422   1.450       .  S
C419        N426   1.157       .  T
C420        N427   1.157       .  T
C421        N941   1.157   1_545  T
C422        N428   1.157       .  T
C423        N432   1.157       .  T
C424        N430   1.155       .  T
N425        C937   1.157       .  T
C433        C434   1.410       .  A
C433        C438   1.415       .  A
C433        C451   1.451       .  S
C434        C439   1.508       .  S
C434        C435   1.410   1_556  A
C435        C436   1.416       .  A
C435        C440   1.450       .  S
C436        C437   1.420       .  A
C436        C452   1.450       .  S
C437        C438   1.420   1_554  A
C438        C441   1.451       .  S
C439        C442   1.406       .  A
C439        C446   1.409       .  A
C440        N457   1.157       .  T
C441        N459   1.157       .  T
C442        C443   1.415       .  A
C442        C447   1.452       .  S
C443        C444   1.431       .  A
C443        C449   1.451       .  S
C444        C445   1.428       .  A
C445        C446   1.420       .  A
C445        C448   1.449       .  S
C446        C450   1.451   1_556  S
C447        N454   1.157       .  T
C448        N455   1.158   1_556  T
C449        N453   1.157       .  T
C450        N456   1.157       .  T
C451        N460   1.157       .  T
C452        N458   1.157       .  T
C461        C462   1.415       .  A
C461        C466   1.413       .  A
C461        C479   1.449       .  S
C462        C467   1.502       .  S
C462        C463   1.414       .  A
C463        C464   1.408       .  A
C463        C468   1.451       .  S
C464        C465   1.412       .  A
C464        C480   1.452       .  S
C465        C466   1.408       .  A
C466        C469   1.449       .  S
C467        C470   1.414       .  A
C467        C474   1.415       .  A
C468        N485   1.157   1_556  T
C469        N487   1.157       .  T
C470        C471   1.413       .  A
C470        C475   1.450       .  S
C471        C472   1.411       .  A
C471        C477   1.450       .  S
C472        C473   1.411       .  A
C473        C474   1.410       .  A
C473        C476   1.451   1_556  S
C474        C478   1.451   1_556  S
C475        N482   1.157       .  T
C476        N483   1.157       .  T
C477        N481   1.157       .  T
C478        N484   1.157       .  T
C479        N488   1.157       .  T
C480        N486   1.157       .  T
C489        C490   1.405       .  A
C489        C494   1.414       .  A
C489        C507   1.451       .  S
C490        C495   1.507       .  S
C490        C491   1.407       .  A
C491        C492   1.421       .  A
C491        C496   1.453       .  S
C492        C493   1.432       .  A
C492        C508   1.447       .  S
C493        C494   1.428       .  A
C494        C497   1.450       .  S
C495        C498   1.414       .  A
C495        C502   1.412       .  A
C496        N513   1.157       .  T
C497        N515   1.157       .  T
C498        C499   1.414   1_556  A
C498        C503   1.450   1_556  S
C499        C500   1.412   1_554  A
C499        C505   1.451       .  S
C500        C501   1.414       .  A
C501        C502   1.414       .  A
C501        C504   1.451       .  S
C502        C506   1.449       .  S
C503        N510   1.157       .  T
C504        N511   1.157       .  T
C505        N509   1.157       .  T
C506        N512   1.157       .  T
C507        N516   1.157       .  T
C508        N514   1.158       .  T
C517        C518   1.538       .  S
C517        C523   1.537       .  S
C517        C521   1.537       .  S
C517        C960   1.561       .  S
C518        H525   1.082       .  S
C518        C519   1.361       .  D
C519        C520   1.545       .  S
C519        C981   1.485       .  S
C520        C524   1.551       .  S
C520        C522   1.557       .  S
C520        H526   1.098       .  S
C521        H527   1.084       .  S
C521        C522   1.376       .  D
C522       C1009   1.532       .  S
C523        H528   1.081       .  S
C523        C524   1.370       .  D
C524        C536   1.516       .  S
C529        C530   1.536       .  S
C529        C535   1.540       .  S
C529        C533   1.539       .  S
C529        C876   1.561       .  S
C530        H537   1.082       .  S
C530        C531   1.362       .  D
C531        C532   1.544       .  S
C531        C925   1.480       .  S
C532        C536   1.546       .  S
C532        C534   1.552       .  S
C532        H538   1.099       .  S
C533        H539   1.084       .  S
C533        C534   1.378       .  D
C534        C897   1.528       .  S
C535        H540   1.081       .  S
C535        C536   1.369       .  D
C541        C542   1.548       .  S
C541        C547   1.535       .  S
C541        C545   1.528       .  S
C541        C848   1.569       .  S
C542        H549   1.075       .  S
C542        C543   1.378       .  D
C543        C544   1.556       .  S
C543        C820   1.525       .  S
C544        C548   1.547       .  S
C544        C546   1.549       .  S
C544        H550   1.104       .  S
C545        H551   1.086       .  S
C545        C546   1.362       .  D
C546        C792   1.493       .  S
C547        H552   1.082       .  S
C547        C548   1.372       .  D
C548        C560   1.511       .  S
C553        C554   1.544       .  S
C553        C559   1.535       .  S
C553        C557   1.526       .  S
C553        C729   1.558       .  S
C554        H561   1.080       .  S
C554        C555   1.382       .  D
C555        C556   1.556       .  S
C555        C764   1.517       .  S
C556        C560   1.547       .  S
C556        C558   1.546       .  S
C556        H562   1.102       .  S
C557        H563   1.087       .  S
C557        C558   1.359       .  D
C558        C708   1.489       .  S
C559        H564   1.082       .  S
C559        C560   1.364       .  D
Zr565       O566   2.438   1_554  S
Zr565       O567   2.464       .  S
Zr565      O1603   2.442   1_454  S
Zr565      O1606   2.379   1_455  S
Zr565      O1608   2.410   1_454  S
O566        H622   0.990       .  S
O567        C587   1.290       .  A
O568        C589   1.286   1_556  A
O569       Zr579   2.421       .  S
O569        C588   1.281   1_554  A
O570       Zr578   2.444       .  S
O570        C589   1.286       .  A
O571      Zr1597   2.447   1_556  S
O571        C588   1.287       .  A
O572      Zr1096   2.443   1_455  S
O572        C587   1.286       .  A
O573       Zr578   2.394       .  S
O573      Zr1612   2.377   1_455  S
O574      Zr1597   2.378       .  S
O574       Zr579   2.394       .  S
O574        H609   0.965       .  S
O575       Zr578   2.397   1_556  S
O575      Zr1627   2.406   1_455  S
O575        H612   0.965       .  S
O576      Zr1597   2.411   1_556  S
O576       Zr579   2.396   1_556  S
Zr577       O602   2.440       .  S
Zr577       O596   2.437       .  S
Zr577       O604   2.439       .  S
Zr577       O592   2.442       .  S
Zr577      O1616   2.407       .  S
Zr577       O585   2.383       .  S
Zr577       O586   2.380       .  S
Zr578       O597   2.435       .  S
Zr578       O590   2.434       .  S
Zr578       O591   2.431       .  S
Zr578       O584   2.400       .  S
Zr578      O1617   2.397   1_455  S
Zr579       O581   2.436   1_554  S
Zr579       O603   2.437       .  S
Zr579       O605   2.436       .  S
Zr579       O583   2.391       .  S
Zr580       O607   2.435       .  S
Zr580      O1614   2.433       .  S
Zr580      O1088   2.448       .  S
Zr580      O1605   2.378       .  S
Zr580      O1616   2.397       .  S
O581        H618   0.990   1_556  S
O582      Zr1612   2.433   1_455  S
O582        H613   0.990       .  S
O582        H627   0.990       .  S
O584      Zr1609   2.402   1_455  S
O584      Zr1612   2.395   1_455  S
O584        H610   0.967       .  S
O585      Zr1610   2.401       .  S
O585       Zr595   2.376   1_554  S
O586       Zr595   2.373   1_554  S
C587        C841   1.515       .  S
C588        C988   1.480       .  S
C589       C1016   1.490   1_554  S
O590        H626   0.990       .  S
O591        C593   1.285       .  A
O592       C1625   1.286       .  A
C593       O1624   1.290   1_455  A
C593        C785   1.500       .  S
O594       Zr595   2.440       .  S
O594        H623   0.990       .  S
Zr595      O1630   2.435       .  S
Zr595       O600   2.448       .  S
Zr595      O1607   2.404       .  S
O596        C601   1.284       .  A
O597        H614   0.990       .  S
O597        H629   0.990   1_554  S
O598      Zr1627   2.435   1_455  S
O598       H1647   0.989       .  S
O599        H628   0.990       .  S
O600        C601   1.287   1_556  A
C601        C953   1.500       .  S
O602        H621   0.990       .  S
O602        H625   0.991       .  S
O603        H617   0.990       .  S
O603        H624   0.990       .  S
O605        C608   1.285       .  A
O606        H616   0.990       .  S
O607        H620   0.990       .  S
C608        C813   1.487       .  S
H615       O1630   0.990       .  S
Zr631       O632   2.439       .  S
Zr631       O633   2.437       .  S
Zr631      O1666   2.440   1_455  S
Zr631      O1671   2.379   1_455  S
Zr631      O1673   2.404   1_455  S
O632        H688   0.990       .  S
O632       H1728   0.989       .  S
O633        C653   1.283       .  A
O634      Zr1663   2.452       .  S
O634        C655   1.287       .  A
O635       Zr645   2.441       .  S
O635        C654   1.287       .  A
O636       Zr644   2.438       .  S
O636        C655   1.286       .  A
O637        C654   1.280       .  A
O638      Zr1678   2.435   1_565  S
O638        C653   1.283       .  A
O639      Zr1663   2.377       .  S
O639       Zr644   2.395       .  S
O639       Zr646   2.381   1_565  S
O640       Zr645   2.386       .  S
O640      Zr1162   2.374       .  S
O640        H675   0.965       .  S
O641      Zr1663   2.403       .  S
O641       Zr644   2.400       .  S
O641        H678   0.967       .  S
O642       Zr645   2.395       .  S
O642      Zr1693   2.398   1_455  S
Zr643       O668   2.440       .  S
Zr643       O662   2.442       .  S
Zr643       O670   2.441       .  S
Zr643       O658   2.439       .  S
Zr643      O1681   2.403       .  S
Zr643       O651   2.381       .  S
Zr643       O652   2.383       .  S
Zr644       O663   2.437       .  S
Zr644       O656   2.431       .  S
Zr644       O657   2.439       .  S
Zr644       O650   2.401       .  S
Zr645       O647   2.433       .  S
Zr645       O669   2.436       .  S
Zr645       O671   2.425       .  S
Zr645       O649   2.396       .  S
Zr645      O1684   2.393       .  S
Zr646      O1188   2.438       .  S
Zr646       O648   2.438   1_545  S
Zr646      O1670   2.425   1_545  S
Zr646      O1156   2.378       .  S
Zr646      O1165   2.396       .  S
Zr646       O650   2.398   1_545  S
O647        H684   0.990       .  S
O648        H679   0.990       .  S
O648        H693   0.990       .  S
O649      Zr1675   2.403   1_455  S
O649      Zr1162   2.399       .  S
O650        H676   0.967       .  S
O651       Zr661   2.374       .  S
O652      Zr1677   2.395       .  S
O652       Zr661   2.376       .  S
O652       H1709   0.966       .  S
C653        C736   1.485       .  S
C654        C932   1.492       .  S
C655        C904   1.498       .  S
O656        H692   0.990       .  S
O657        C659   1.287       .  A
C659        C701   1.491       .  S
O660       Zr661   2.436       .  S
O660        H689   0.990       .  S
Zr661      O1697   2.438       .  S
Zr661       O666   2.440       .  S
Zr661      O1674   2.400       .  S
O662        C667   1.286       .  A
O663        H680   0.990       .  S
O663        H695   0.990       .  S
O665      Zr1693   2.439   1_455  S
O665       H1717   0.990       .  S
O665        H694   0.990       .  S
O666        C667   1.285       .  A
C667        C869   1.500       .  S
O668        H687   0.990       .  S
O668        H691   0.991       .  S
O669        H683   0.990       .  S
O669        H690   0.990       .  S
O670       C1706   1.286       .  A
O671        C674   1.283       .  A
O672      Zr1162   2.437       .  S
O672        H682   0.990       .  S
C674       O1702   1.286       .  A
C674        C757   1.482       .  S
H677       O1684   0.966       .  S
H685       O1697   0.990       .  S
H696       O1664   0.988       .  S
C697        C698   1.409       .  A
C697        C702   1.412       .  A
C697        C715   1.450       .  S
C698        C703   1.497       .  S
C698        C699   1.410       .  A
C699        C700   1.411       .  A
C699        C704   1.452       .  S
C700        C701   1.417       .  A
C700        C716   1.449   1_565  S
C701        C702   1.416       .  A
C702        C705   1.450       .  S
C703        C706   1.411       .  A
C703        C710   1.412       .  A
C704        N721   1.157       .  T
C706        C707   1.410       .  A
C706        C711   1.451       .  S
C707        C708   1.414       .  A
C707        C713   1.451       .  S
C708        C709   1.407       .  A
C709        C710   1.412       .  A
C709        C712   1.443       .  S
C710        C714   1.450       .  S
C711        N718   1.157       .  T
C712        N719   1.154       .  T
C713        N717   1.157       .  T
C714        N720   1.157       .  T
C715        N724   1.157       .  T
C716        N722   1.156       .  T
C725        C726   1.412       .  A
C725        C730   1.421       .  A
C725        C743   1.451       .  S
C726        C731   1.508       .  S
C726        C727   1.409       .  A
C727        C728   1.408       .  A
C727        C732   1.452       .  S
C728        C729   1.429       .  A
C728        C744   1.454       .  S
C729        C730   1.425       .  A
C730        C733   1.448       .  S
C731        C734   1.416       .  A
C731        C738   1.415       .  A
C732        N749   1.157       .  T
C733        N751   1.158       .  T
C734        C735   1.414       .  A
C734        C739   1.451       .  S
C735        C736   1.412       .  A
C735        C741   1.451   1_565  S
C736        C737   1.410       .  A
C737        C738   1.413       .  A
C737        C740   1.451       .  S
C738        C742   1.450       .  S
C739        N746   1.157   1_565  T
C740       N1779   1.157   1_455  T
C742        N748   1.157       .  T
C743        N752   1.157       .  T
C744        N750   1.158       .  T
N747       C1772   1.157       .  T
C753        C754   1.410       .  A
C753        C758   1.411       .  A
C753        C771   1.451       .  S
C754        C759   1.495       .  S
C754        C755   1.410       .  A
C755        C756   1.409       .  A
C755        C760   1.449       .  S
C756        C757   1.412       .  A
C756        C772   1.451       .  S
C757        C758   1.415       .  A
C758        C761   1.451       .  S
C759        C762   1.404       .  A
C759        C766   1.405       .  A
C760        N777   1.157       .  T
C761        N779   1.157       .  T
C762        C763   1.414       .  A
C762        C767   1.453       .  S
C763        C764   1.427       .  A
C763        C769   1.448       .  S
C764        C765   1.426       .  A
C765        C766   1.411       .  A
C765        C768   1.452       .  S
C766        C770   1.452       .  S
C767        N774   1.157       .  T
C768        N775   1.158       .  T
C769        N773   1.158       .  T
C770        N776   1.157       .  T
C771        N780   1.157       .  T
C772       N1810   1.157       .  T
N778       C1804   1.157       .  T
C781        C782   1.409       .  A
C781        C786   1.417       .  A
C781        C799   1.451       .  S
C782        C787   1.502       .  S
C782        C783   1.409       .  A
C783        C784   1.412       .  A
C783        C788   1.451       .  S
C784        C785   1.418       .  A
C784        C800   1.449   1_455  S
C785        C786   1.421       .  A
C786        C789   1.450       .  S
C787        C790   1.411       .  A
C787        C794   1.412       .  A
C788        N805   1.157       .  T
C789        N807   1.157       .  T
C790        C791   1.410       .  A
C790        C795   1.450       .  S
C791        C792   1.414       .  A
C791        C797   1.452       .  S
C792        C793   1.411       .  A
C793        C794   1.415       .  A
C793        C796   1.445       .  S
C794        C798   1.450       .  S
C795        N802   1.157       .  T
C796        N803   1.155       .  T
C797        N801   1.157       .  T
C798        N804   1.157       .  T
C799        N808   1.157       .  T
C800       N1838   1.156       .  T
N806       C1832   1.157       .  T
C809        C810   1.414       .  A
C809        C814   1.414       .  A
C809        C827   1.450       .  S
C810        C815   1.506       .  S
C810        C811   1.413       .  A
C811        C812   1.415       .  A
C811        C816   1.450       .  S
C812        C813   1.413       .  A
C812        C828   1.451       .  S
C813        C814   1.412       .  A
C814        C817   1.451       .  S
C815        C818   1.408       .  A
C815        C822   1.408       .  A
C816        N833   1.157       .  T
C817        N835   1.157       .  T
C818        C819   1.418       .  A
C818        C823   1.452       .  S
C819        C820   1.425       .  A
C819        C825   1.447       .  S
C820        C821   1.428       .  A
C821        C822   1.415       .  A
C821        C824   1.451       .  S
C822        C826   1.452       .  S
C823        N830   1.157       .  T
C824        N831   1.158       .  T
C825        N829   1.157       .  T
C826        N832   1.157       .  T
C827        N836   1.157       .  T
C828        N834   1.157       .  T
C837        C838   1.411       .  A
C837        C842   1.417       .  A
C837        C855   1.451       .  S
C838        C843   1.516       .  S
C838        C839   1.414       .  A
C839        C840   1.421       .  A
C839        C844   1.450       .  S
C840        C841   1.421       .  A
C840        C856   1.449       .  S
C841        C842   1.421       .  A
C843        C846   1.410       .  A
C843        C850   1.410       .  A
C844        N861   1.157       .  T
C845        N863   1.157       .  T
C846        C847   1.419       .  A
C846        C851   1.451       .  S
C847        C848   1.433       .  A
C847        C853   1.454       .  S
C848        C849   1.427       .  A
C849        C850   1.418       .  A
C849        C852   1.448       .  S
C850        C854   1.451       .  S
C851        N858   1.157       .  T
C852        N859   1.158       .  T
C853        N857   1.158       .  T
C854        N860   1.157       .  T
C855        N864   1.157       .  T
C856       N1894   1.157       .  T
N862       C1888   1.157       .  T
C865        C866   1.411       .  A
C865        C870   1.415       .  A
C865        C883   1.450       .  S
C866        C871   1.506       .  S
C866        C867   1.411       .  A
C867        C868   1.415       .  A
C867        C872   1.450       .  S
C868        C869   1.417       .  A
C868        C884   1.450       .  S
C869        C870   1.418       .  A
C870        C873   1.450       .  S
C871        C874   1.407       .  A
C871        C878   1.410       .  A
C872        N889   1.157       .  T
C873        N891   1.157       .  T
C874        C875   1.411       .  A
C874        C879   1.451       .  S
C875        C876   1.425       .  A
C875        C881   1.452       .  S
C876        C877   1.427       .  A
C877        C878   1.420       .  A
C877        C880   1.449       .  S
C878        C882   1.451       .  S
C879        N886   1.157       .  T
C880        N887   1.158       .  T
C881        N885   1.157       .  T
C882        N888   1.157       .  T
C883        N892   1.157       .  T
C884        N890   1.157       .  T
C893        C894   1.408       .  A
C893        C898   1.416       .  A
C893        C911   1.452       .  S
C894        C899   1.508       .  S
C894        C895   1.406       .  A
C895        C896   1.418       .  A
C895        C900   1.452       .  S
C896        C897   1.430       .  A
C896        C912   1.448       .  S
C897        C898   1.427       .  A
C898        C901   1.450       .  S
C899        C902   1.413       .  A
C899        C906   1.411       .  A
C900        N917   1.157       .  T
C901        N919   1.157       .  T
C902        C903   1.416       .  A
C902        C907   1.451       .  S
C903        C904   1.417       .  A
C903        C909   1.450       .  S
C904        C905   1.416       .  A
C905        C906   1.414       .  A
C905        C908   1.450       .  S
C906        C910   1.448       .  S
C907        N914   1.157       .  T
C908        N915   1.157       .  T
C909        N913   1.157       .  T
C910        N916   1.156       .  T
C911        N920   1.157       .  T
C912        N918   1.158       .  T
C921        C922   1.411       .  A
C921        C926   1.407       .  A
C921        C939   1.452       .  S
C922        C927   1.491       .  S
C922        C923   1.410       .  A
C923        C924   1.408       .  A
C923        C928   1.449       .  S
C924        C925   1.407       .  A
C924        C940   1.447       .  S
C925        C926   1.412       .  A
C926        C929   1.452       .  S
C927        C930   1.408       .  A
C927        C934   1.407       .  A
C928        N945   1.157       .  T
C929        N947   1.157       .  T
C930        C931   1.408       .  A
C930        C935   1.452       .  S
C931        C932   1.422       .  A
C931        C937   1.452       .  S
C932        C933   1.418       .  A
C933        C934   1.410       .  A
C933        C936   1.449       .  S
C934        C938   1.451       .  S
C935        N942   1.157       .  T
C936        N943   1.157       .  T
C938        N944   1.157       .  T
C939        N948   1.157       .  T
C940        N946   1.156       .  T
C949        C950   1.410       .  A
C949        C954   1.414       .  A
C949        C967   1.450       .  S
C950        C955   1.505       .  S
C950        C951   1.411   1_556  A
C951        C952   1.416       .  A
C951        C956   1.451       .  S
C952        C953   1.419       .  A
C952        C968   1.449       .  S
C953        C954   1.417   1_554  A
C954        C957   1.450       .  S
C955        C958   1.407       .  A
C955        C962   1.409       .  A
C956        N973   1.157       .  T
C957        N975   1.157       .  T
C958        C959   1.413       .  A
C958        C963   1.452       .  S
C959        C960   1.428       .  A
C959        C965   1.452       .  S
C960        C961   1.427       .  A
C961        C962   1.418       .  A
C961        C964   1.449       .  S
C962        C966   1.451   1_556  S
C963        N970   1.157       .  T
C964        N971   1.158   1_556  T
C965        N969   1.157       .  T
C966        N972   1.157       .  T
C967        N976   1.157       .  T
C968        N974   1.157       .  T
C977        C978   1.414       .  A
C977        C982   1.413       .  A
C977        C995   1.450       .  S
C978        C983   1.499       .  S
C978        C979   1.411       .  A
C979        C980   1.406       .  A
C979        C984   1.451       .  S
C980        C981   1.412       .  A
C980        C996   1.451       .  S
C981        C982   1.410       .  A
C982        C985   1.448       .  S
C983        C986   1.412       .  A
C983        C990   1.415       .  A
C984       N1001   1.157   1_556  T
C985       N1003   1.156       .  T
C986        C987   1.412       .  A
C986        C991   1.450       .  S
C987        C988   1.412       .  A
C987        C993   1.450       .  S
C988        C989   1.411       .  A
C989        C990   1.409       .  A
C989        C992   1.452   1_556  S
C990        C994   1.452   1_556  S
C991        N998   1.157       .  T
C992        N999   1.158       .  T
C993        N997   1.157       .  T
C994       N1000   1.157       .  T
C995       N1004   1.157       .  T
C996       N1002   1.157       .  T
C1005      C1006   1.404       .  A
C1005      C1010   1.414       .  A
C1005      C1023   1.452       .  S
C1006      C1011   1.508       .  S
C1006      C1007   1.407       .  A
C1007      C1008   1.421       .  A
C1007      C1012   1.452       .  S
C1008      C1009   1.432       .  A
C1008      C1024   1.447       .  S
C1009      C1010   1.429       .  A
C1010      C1013   1.450       .  S
C1011      C1014   1.415       .  A
C1011      C1018   1.412       .  A
C1012      N1029   1.157       .  T
C1013      N1031   1.157       .  T
C1014      C1015   1.415   1_556  A
C1014      C1019   1.450   1_556  S
C1015      C1016   1.412   1_554  A
C1015      C1021   1.451       .  S
C1016      C1017   1.414       .  A
C1017      C1018   1.414       .  A
C1017      C1020   1.450       .  S
C1018      C1022   1.449       .  S
C1019      N1026   1.157       .  T
C1020      N1027   1.157       .  T
C1021      N1025   1.157       .  T
C1022      N1028   1.157       .  T
C1023      N1032   1.157       .  T
C1024      N1030   1.158       .  T
C1033      C1034   1.536       .  S
C1033      C1039   1.536       .  S
C1033      C1037   1.534       .  S
C1033      C1476   1.561       .  S
C1034      H1041   1.083       .  S
C1034      C1035   1.363       .  D
C1035      C1036   1.552       .  S
C1035      C1497   1.490       .  S
C1036      C1040   1.552       .  S
C1036      C1038   1.557       .  S
C1036      H1042   1.100       .  S
C1037      H1043   1.084       .  S
C1037      C1038   1.376       .  D
C1038      C1525   1.527       .  S
C1039      H1044   1.080       .  S
C1039      C1040   1.369       .  D
C1040      C1052   1.517       .  S
C1045      C1046   1.537       .  S
C1045      C1051   1.539       .  S
C1045      C1049   1.534       .  S
C1045      C1392   1.563       .  S
C1046      H1053   1.083       .  S
C1046      C1047   1.364       .  D
C1047      C1048   1.550       .  S
C1047      C1441   1.487       .  S
C1048      C1052   1.547       .  S
C1048      C1050   1.556       .  S
C1048      H1054   1.102       .  S
C1049      H1055   1.084       .  S
C1049      C1050   1.375       .  D
C1050      C1413   1.527       .  S
C1051      H1056   1.080       .  S
C1051      C1052   1.371       .  D
C1057      C1058   1.542       .  S
C1057      C1063   1.535       .  S
C1057      C1061   1.525       .  S
C1057      C1364   1.560       .  S
C1058      H1065   1.078       .  S
C1058      C1059   1.376       .  D
C1059      C1060   1.558       .  S
C1059      C1336   1.520       .  S
C1060      C1064   1.550       .  S
C1060      C1062   1.553       .  S
C1060      H1066   1.105       .  S
C1061      H1067   1.087       .  S
C1061      C1062   1.361       .  D
C1062      C1308   1.493       .  S
C1063      H1068   1.082       .  S
C1063      C1064   1.370       .  D
C1064      C1076   1.514       .  S
C1069      C1070   1.548       .  S
C1069      C1075   1.534       .  S
C1069      C1073   1.526       .  S
C1069      C1245   1.563       .  S
C1070      H1077   1.079       .  S
C1070      C1071   1.381       .  D
C1071      C1072   1.556       .  S
C1071      C1280   1.522       .  S
C1072      C1076   1.549       .  S
C1072      C1074   1.550       .  S
C1072      H1078   1.104       .  S
C1073      H1079   1.087       .  S
C1073      C1074   1.361       .  D
C1074      C1224   1.493       .  S
C1075      H1080   1.082       .  S
C1075      C1076   1.367       .  D
Zr1081     O1082   2.439   1_554  S
Zr1081     O1083   2.447       .  S
Zr1081     O1600   2.440   1_554  S
Zr1081     O1605   2.385       .  S
Zr1081     O1607   2.412   1_554  S
O1082      H1138   0.990       .  S
O1082      H1662   0.990       .  S
O1083      C1103   1.287       .  A
O1084     Zr1597   2.446   1_546  S
O1084      C1105   1.287   1_556  A
O1085     Zr1095   2.435       .  S
O1085      C1104   1.284   1_554  A
O1086     Zr1094   2.448       .  S
O1086      C1105   1.287       .  A
O1087      C1104   1.285       .  A
O1088      C1103   1.288       .  A
O1089     Zr1597   2.383   1_545  S
O1089     Zr1094   2.395       .  S
O1090     Zr1095   2.392       .  S
O1090     Zr1612   2.369       .  S
O1090      H1125   0.965       .  S
O1091     Zr1597   2.413   1_545  S
O1091     Zr1094   2.401       .  S
O1091      H1128   0.966   1_554  S
O1092     Zr1095   2.392   1_556  S
O1092     Zr1627   2.405       .  S
Zr1093     O1118   2.438       .  S
Zr1093     O1112   2.440       .  S
Zr1093     O1120   2.444   1_545  S
Zr1093     O1108   2.438       .  S
Zr1093     O1615   2.408   1_545  S
Zr1093     O1101   2.381       .  S
Zr1093     O1102   2.380   1_545  S
Zr1094     O1113   2.438       .  S
Zr1094     O1106   2.434       .  S
Zr1094     O1107   2.444       .  S
Zr1094     O1100   2.401       .  S
Zr1095     O1097   2.437   1_554  S
Zr1095     O1119   2.435       .  S
Zr1095     O1121   2.440       .  S
Zr1095     O1099   2.397       .  S
Zr1095     O1618   2.385       .  S
Zr1096     O1638   2.435       .  S
Zr1096     O1123   2.435       .  S
Zr1096     O1606   2.371       .  S
Zr1096     O1615   2.407       .  S
O1097      H1134   0.990       .  S
O1098      H1129   0.990       .  S
O1098      H1143   0.989       .  S
O1099     Zr1609   2.405       .  S
O1099     Zr1612   2.400       .  S
O1100      H1126   0.967       .  S
O1101     Zr1111   2.369   1_554  S
O1102     Zr1611   2.390       .  S
O1102     Zr1111   2.376   1_564  S
O1102      H1643   0.965       .  S
C1103      C1357   1.509       .  S
C1104      C1504   1.482       .  S
C1105      C1532   1.494   1_554  S
O1106      H1142   0.989       .  S
O1107      C1109   1.286       .  A
C1109      C1301   1.491       .  S
O1110     Zr1111   2.440       .  S
O1110      H1139   0.991       .  S
Zr1111     O1631   2.438   1_545  S
Zr1111     O1116   2.452       .  S
Zr1111     O1608   2.411   1_545  S
O1112      C1117   1.285       .  A
O1113      H1130   0.990       .  S
O1113      H1145   0.990       .  S
O1115     Zr1627   2.440       .  S
O1115      H1651   0.990       .  S
O1115      H1144   0.990       .  S
O1116      C1117   1.288   1_556  A
C1117      C1469   1.504       .  S
O1118      H1137   0.990       .  S
O1118      H1141   0.991       .  S
O1119      H1133   0.990       .  S
O1119      H1140   0.990       .  S
O1120      C1640   1.287       .  A
O1121      C1124   1.286       .  A
O1122     Zr1612   2.436       .  S
O1122      H1132   0.990       .  S
O1123      H1136   0.990   1_565  S
C1124      O1636   1.288       .  A
C1124      C1329   1.491       .  S
H1127      O1618   0.965       .  S
H1135      O1631   0.990       .  S
H1146      O1598   0.989       .  S
Zr1147     O1148   2.437       .  S
Zr1147     O1149   2.437       .  S
Zr1147     O1669   2.431       .  S
Zr1147     O1672   2.381       .  S
Zr1147     O1674   2.404       .  S
O1148      H1204   0.990       .  S
O1149      C1169   1.283       .  A
O1150      C1171   1.282       .  A
O1151     Zr1161   2.444       .  S
O1151      C1170   1.287       .  A
O1152     Zr1160   2.441       .  S
O1152      C1171   1.286       .  A
O1153     Zr1663   2.426   1_545  S
O1153      C1170   1.283       .  A
O1154      C1169   1.280       .  A
O1155     Zr1160   2.397       .  S
O1155     Zr1162   2.380   1_655  S
O1156     Zr1663   2.380   1_545  S
O1156     Zr1161   2.394       .  S
O1156      H1191   0.965       .  S
O1157     Zr1160   2.404       .  S
O1157     Zr1693   2.404       .  S
O1157      H1194   0.967       .  S
O1158     Zr1663   2.405   1_545  S
O1158     Zr1161   2.394       .  S
Zr1159     O1184   2.439       .  S
Zr1159     O1178   2.437       .  S
Zr1159     O1186   2.437   1_655  S
Zr1159     O1174   2.441       .  S
Zr1159     O1682   2.408   1_545  S
Zr1159     O1167   2.380       .  S
Zr1159     O1168   2.383   1_655  S
Zr1160     O1179   2.435       .  S
Zr1160     O1172   2.431       .  S
Zr1160     O1173   2.436       .  S
Zr1160     O1166   2.403       .  S
Zr1160     O1683   2.393       .  S
Zr1161     O1163   2.433       .  S
Zr1161     O1185   2.439       .  S
Zr1161     O1187   2.440       .  S
Zr1161     O1165   2.395       .  S
Zr1162     O1705   2.437       .  S
Zr1162     O1164   2.438   1_455  S
Zr1162     O1166   2.399   1_455  S
O1163      H1200   0.990       .  S
O1164      H1195   0.990       .  S
O1164      H1209   0.990       .  S
O1166     Zr1675   2.406       .  S
O1166      H1192   0.966       .  S
O1167     Zr1676   2.389   1_545  S
O1167     Zr1177   2.374       .  S
O1168     Zr1177   2.378   1_455  S
C1169      C1252   1.479       .  S
C1170      C1448   1.496       .  S
C1171      C1420   1.495       .  S
O1172      H1208   0.989       .  S
O1173      C1175   1.285       .  A
O1174      C1691   1.286   1_545  A
C1175      O1690   1.286       .  A
C1175      C1217   1.497       .  S
O1176     Zr1177   2.441       .  S
O1176      H1205   0.990       .  S
Zr1177     O1696   2.436   1_545  S
Zr1177     O1182   2.430       .  S
Zr1177     O1673   2.395   1_545  S
O1178      C1183   1.285       .  A
O1179      H1196   0.990       .  S
O1179      H1211   0.990       .  S
O1180     Zr1693   2.433       .  S
O1180      H1713   0.990       .  S
O1181      H1210   0.990       .  S
O1182      C1183   1.284       .  A
C1183      C1385   1.492       .  S
O1184      H1203   0.990       .  S
O1184      H1207   0.990       .  S
O1185      H1199   0.990       .  S
O1185      H1206   0.990       .  S
O1187      C1190   1.286       .  A
O1188      H1198   0.990       .  S
O1189     Zr1678   2.438       .  S
O1189      H1718   0.990   1_455  S
C1190      C1273   1.487       .  S
H1197      O1696   0.990   1_545  S
H1202      O1705   0.990   1_655  S
C1213      C1214   1.411       .  A
C1213      C1218   1.415       .  A
C1213      C1231   1.451       .  S
C1214      C1219   1.500       .  S
C1214      C1215   1.409       .  A
C1215      C1216   1.411       .  A
C1215      C1220   1.451       .  S
C1216      C1217   1.418       .  A
C1216      C1232   1.450       .  S
C1217      C1218   1.419       .  A
C1218      C1221   1.451       .  S
C1219      C1222   1.411       .  A
C1219      C1226   1.413       .  A
C1220      N1237   1.157       .  T
C1221      N1755   1.157       .  T
C1222      C1223   1.411       .  A
C1222      C1227   1.451       .  S
C1223      C1224   1.415       .  A
C1223      C1229   1.451       .  S
C1224      C1225   1.408       .  A
C1225      C1226   1.414       .  A
C1225      C1228   1.443       .  S
C1226      C1230   1.450       .  S
C1227      N1234   1.157       .  T
C1228      N1235   1.154       .  T
C1229      N1233   1.157       .  T
C1230      N1236   1.157       .  T
C1231      N1240   1.157       .  T
C1232      N1238   1.157       .  T
N1239      C1737   1.157       .  T
C1241      C1242   1.411       .  A
C1241      C1246   1.419       .  A
C1241      C1259   1.451       .  S
C1242      C1247   1.509       .  S
C1242      C1243   1.410       .  A
C1243      C1244   1.412       .  A
C1243      C1248   1.453       .  S
C1244      C1245   1.430       .  A
C1244      C1260   1.454       .  S
C1245      C1246   1.425       .  A
C1246      C1249   1.448       .  S
C1247      C1250   1.417       .  A
C1247      C1254   1.417       .  A
C1248      N1265   1.157       .  T
C1249      N1267   1.158       .  T
C1250      C1251   1.411       .  A
C1250      C1255   1.450       .  S
C1251      C1252   1.409       .  A
C1251      C1257   1.452       .  S
C1252      C1253   1.409       .  A
C1253      C1254   1.414       .  A
C1253      C1256   1.451       .  S
C1254      C1258   1.450       .  S
C1255      N1262   1.157       .  T
C1257      N1777   1.157       .  T
C1258      N1264   1.157       .  T
C1259      N1268   1.157       .  T
C1260      N1266   1.158       .  T
N1261      C1773   1.158       .  T
C1269      C1270   1.412       .  A
C1269      C1274   1.412       .  A
C1269      C1287   1.450       .  S
C1270      C1275   1.504       .  S
C1270      C1271   1.412       .  A
C1271      C1272   1.414       .  A
C1271      C1276   1.448       .  S
C1272      C1273   1.413       .  A
C1272      C1288   1.451       .  S
C1273      C1274   1.413       .  A
C1274      C1277   1.450       .  S
C1275      C1278   1.406       .  A
C1275      C1282   1.407       .  A
C1276      N1293   1.157       .  T
C1277      N1295   1.157       .  T
C1278      C1279   1.417       .  A
C1278      C1283   1.452       .  S
C1279      C1280   1.427       .  A
C1279      C1285   1.447       .  S
C1280      C1281   1.428       .  A
C1281      C1282   1.415       .  A
C1281      C1284   1.451       .  S
C1282      C1286   1.451       .  S
C1283      N1290   1.157       .  T
C1284      N1291   1.158       .  T
C1285      N1289   1.157       .  T
C1286      N1292   1.157       .  T
C1287      N1296   1.157       .  T
C1297      C1298   1.410       .  A
C1297      C1302   1.414       .  A
C1297      C1315   1.450       .  S
C1298      C1303   1.497       .  S
C1298      C1299   1.408       .  A
C1299      C1300   1.410       .  A
C1299      C1304   1.451       .  S
C1300      C1301   1.416       .  A
C1300      C1316   1.449       .  S
C1301      C1302   1.416       .  A
C1302      C1305   1.449       .  S
C1303      C1306   1.410       .  A
C1303      C1310   1.410       .  A
C1304      N1321   1.157       .  T
C1305      N1323   1.157       .  T
C1306      C1307   1.409       .  A
C1306      C1311   1.451       .  S
C1307      C1308   1.415       .  A
C1307      C1313   1.451       .  S
C1308      C1309   1.412       .  A
C1309      C1310   1.414       .  A
C1309      C1312   1.445       .  S
C1310      C1314   1.450       .  S
C1311      N1318   1.157       .  T
C1312      N1319   1.156       .  T
C1313      N1317   1.157       .  T
C1314      N1320   1.157       .  T
C1315      N1324   1.157       .  T
C1325      C1326   1.411       .  A
C1325      C1330   1.413       .  A
C1325      C1343   1.451       .  S
C1326      C1331   1.502       .  S
C1326      C1327   1.411       .  A
C1327      C1328   1.415       .  A
C1327      C1332   1.450       .  S
C1328      C1329   1.415       .  A
C1328      C1344   1.450       .  S
C1329      C1330   1.415       .  A
C1330      C1333   1.450       .  S
C1331      C1334   1.407       .  A
C1331      C1338   1.406       .  A
C1332      N1349   1.157       .  T
C1333      N1351   1.157       .  T
C1334      C1335   1.417       .  A
C1334      C1339   1.451       .  S
C1335      C1336   1.425       .  A
C1335      C1341   1.448       .  S
C1336      C1337   1.429       .  A
C1337      C1338   1.412       .  A
C1337      C1340   1.453       .  S
C1338      C1342   1.453       .  S
C1339      N1346   1.157       .  T
C1340      N1347   1.158       .  T
C1341      N1345   1.157       .  T
C1342      N1348   1.157       .  T
C1343      N1352   1.157       .  T
C1344      N1350   1.157       .  T
C1353      C1354   1.411       .  A
C1353      C1358   1.416       .  A
C1353      C1371   1.451       .  S
C1354      C1359   1.510       .  S
C1354      C1355   1.413       .  A
C1355      C1356   1.416       .  A
C1355      C1360   1.452       .  S
C1356      C1357   1.421       .  A
C1356      C1372   1.449       .  S
C1357      C1358   1.420       .  A
C1358      C1877   1.450       .  S
C1359      C1362   1.410       .  A
C1359      C1366   1.411       .  A
C1360      N1377   1.157       .  T
C1361      C1874   1.450       .  S
C1361      N1379   1.157   1_565  T
C1362      C1363   1.414       .  A
C1362      C1367   1.452       .  S
C1363      C1364   1.430       .  A
C1363      C1369   1.454       .  S
C1364      C1365   1.424       .  A
C1365      C1366   1.415       .  A
C1365      C1368   1.449       .  S
C1366      C1370   1.452       .  S
C1367      N1374   1.157       .  T
C1368      N1375   1.158       .  T
C1369      N1373   1.158       .  T
C1370      N1376   1.157       .  T
C1371      N1380   1.157       .  T
C1381      C1382   1.411       .  A
C1381      C1386   1.413       .  A
C1381      C1399   1.450       .  S
C1382      C1387   1.504       .  S
C1382      C1383   1.412       .  A
C1383      C1384   1.413       .  A
C1383      C1388   1.450       .  S
C1384      C1385   1.415       .  A
C1384      C1400   1.451       .  S
C1385      C1386   1.416       .  A
C1386      C1389   1.451       .  S
C1387      C1390   1.406       .  A
C1387      C1394   1.408       .  A
C1388      N1405   1.157       .  T
C1389      N1407   1.157   1_545  T
C1390      C1391   1.413       .  A
C1390      C1395   1.452       .  S
C1391      C1392   1.430       .  A
C1391      C1397   1.452       .  S
C1392      C1393   1.428       .  A
C1393      C1394   1.419       .  A
C1393      C1396   1.449       .  S
C1394      C1398   1.451       .  S
C1395      N1402   1.157       .  T
C1396      N1403   1.158       .  T
C1397      N1401   1.158       .  T
C1398      N1404   1.157       .  T
C1399      N1408   1.157       .  T
C1400      N1406   1.157       .  T
C1409      C1410   1.407       .  A
C1409      C1414   1.416       .  A
C1409      C1427   1.452       .  S
C1410      C1415   1.506       .  S
C1410      C1411   1.407       .  A
C1411      C1412   1.417       .  A
C1411      C1416   1.453       .  S
C1412      C1413   1.428       .  A
C1412      C1428   1.447       .  S
C1413      C1414   1.429       .  A
C1414      C1417   1.451       .  S
C1415      C1418   1.412       .  A
C1415      C1422   1.412       .  A
C1416      N1433   1.157       .  T
C1417      N1435   1.157       .  T
C1418      C1419   1.412       .  A
C1418      C1423   1.451       .  S
C1419      C1420   1.416       .  A
C1419      C1425   1.450       .  S
C1420      C1421   1.418       .  A
C1421      C1422   1.414       .  A
C1421      C1424   1.451       .  S
C1422      C1426   1.449       .  S
C1423      N1430   1.157       .  T
C1424      N1431   1.157       .  T
C1425      N1429   1.157       .  T
C1426      N1432   1.157       .  T
C1427      N1436   1.157       .  T
C1428      N1434   1.157       .  T
C1437      C1438   1.413       .  A
C1437      C1442   1.409       .  A
C1437      C1455   1.451       .  S
C1438      C1443   1.497       .  S
C1438      C1439   1.413       .  A
C1439      C1440   1.412       .  A
C1439      C1444   1.450       .  S
C1440      C1441   1.410       .  A
C1440      C1456   1.447       .  S
C1441      C1442   1.411       .  A
C1442      C1445   1.451       .  S
C1443      C1446   1.408       .  A
C1443      C1450   1.411       .  A
C1444      N1461   1.157       .  T
C1445      N1463   1.157       .  T
C1446      C1447   1.408       .  A
C1446      C1451   1.452       .  S
C1447      C1448   1.420       .  A
C1447      C1453   1.451       .  S
C1448      C1449   1.418       .  A
C1449      C1450   1.415       .  A
C1449      C1452   1.450       .  S
C1450      C1454   1.451       .  S
C1451      N1458   1.157       .  T
C1452      N1459   1.157       .  T
C1453      N1973   1.157   1_545  T
C1454      N1460   1.157       .  T
C1455      N1464   1.157       .  T
C1456      N1462   1.156       .  T
N1457      C1969   1.157       .  T
C1465      C1466   1.410       .  A
C1465      C1470   1.416       .  A
C1465      C1483   1.451       .  S
C1466      C1471   1.506       .  S
C1466      C1467   1.410   1_556  A
C1467      C1468   1.416       .  A
C1467      C1472   1.450       .  S
C1468      C1469   1.420       .  A
C1468      C1484   1.450       .  S
C1469      C1470   1.419   1_554  A
C1470      C1473   1.450       .  S
C1471      C1474   1.407       .  A
C1471      C1478   1.409       .  A
C1472      N1489   1.157       .  T
C1473      N1491   1.157       .  T
C1474      C1475   1.413       .  A
C1474      C1479   1.451       .  S
C1475      C1476   1.428       .  A
C1475      C1481   1.452       .  S
C1476      C1477   1.425       .  A
C1477      C1478   1.418       .  A
C1477      C1480   1.449       .  S
C1478      C1482   1.450   1_556  S
C1479      N1486   1.157       .  T
C1480      N1487   1.158   1_556  T
C1481      N1485   1.157       .  T
C1482      N1488   1.157       .  T
C1483      N1492   1.157       .  T
C1484      N1490   1.157       .  T
C1493      C1494   1.414       .  A
C1493      C1498   1.414       .  A
C1493      C1511   1.449       .  S
C1494      C1499   1.501       .  S
C1494      C1495   1.412       .  A
C1495      C1496   1.410       .  A
C1495      C1500   1.451       .  S
C1496      C1497   1.413       .  A
C1496      C1512   1.451       .  S
C1497      C1498   1.410       .  A
C1498      C1501   1.448       .  S
C1499      C1502   1.414       .  A
C1499      C1506   1.414       .  A
C1500      N1517   1.157   1_556  T
C1501      N1519   1.156       .  T
C1502      C1503   1.413       .  A
C1502      C1507   1.450       .  S
C1503      C1504   1.411       .  A
C1503      C1509   1.450       .  S
C1504      C1505   1.411       .  A
C1505      C1506   1.410       .  A
C1505      C1508   1.452   1_556  S
C1506      C1510   1.451   1_556  S
C1507      N1514   1.157       .  T
C1508      N1515   1.157       .  T
C1509      N1513   1.157       .  T
C1510      N1516   1.157       .  T
C1511      N1520   1.157       .  T
C1512      N1518   1.157       .  T
C1521      C1522   1.405       .  A
C1521      C1526   1.414       .  A
C1521      C1539   1.452       .  S
C1522      C1527   1.504       .  S
C1522      C1523   1.405       .  A
C1523      C1524   1.418       .  A
C1523      C1528   1.452       .  S
C1524      C1525   1.430       .  A
C1524      C1540   1.447       .  S
C1525      C1526   1.429       .  A
C1526      C1529   1.451       .  S
C1527      C1530   1.413       .  A
C1527      C1534   1.410       .  A
C1528      N1545   1.157       .  T
C1529      N1547   1.157       .  T
C1530      C1531   1.415   1_556  A
C1530      C1535   1.451   1_556  S
C1531      C1532   1.415   1_554  A
C1531      C1537   1.450       .  S
C1532      C1533   1.416       .  A
C1533      C1534   1.414       .  A
C1533      C1536   1.450       .  S
C1534      C1538   1.450       .  S
C1535      N1542   1.157       .  T
C1536      N1543   1.157       .  T
C1537      N1541   1.157       .  T
C1538      N1544   1.157       .  T
C1539      N1548   1.157       .  T
C1540      N1546   1.158       .  T
C1549      C1550   1.537       .  S
C1549      C1555   1.536       .  S
C1549      C1553   1.534       .  S
C1549      C1992   1.557       .  S
C1550      H1557   1.083       .  S
C1550      C1551   1.362       .  D
C1551      C1552   1.549       .  S
C1551      C2013   1.487       .  S
C1552      C1556   1.551       .  S
C1552      C1554   1.558       .  S
C1552      H1558   1.098       .  S
C1553      H1559   1.084       .  S
C1553      C1554   1.374       .  D
C1554      C2041   1.530       .  S
C1555      H1560   1.081       .  S
C1555      C1556   1.367       .  D
C1556      C1568   1.515       .  S
C1561      C1562   1.538       .  S
C1561      C1567   1.539       .  S
C1561      C1565   1.537       .  S
C1561      C1908   1.563       .  S
C1562      H1569   1.083       .  S
C1562      C1563   1.363       .  D
C1563      C1564   1.543       .  S
C1563      C1957   1.482       .  S
C1564      C1568   1.545       .  S
C1564      C1566   1.550       .  S
C1564      H1570   1.099       .  S
C1565      H1571   1.085       .  S
C1565      C1566   1.378       .  D
C1566      C1929   1.525       .  S
C1567      H1572   1.081       .  S
C1567      C1568   1.369       .  D
C1573      C1574   1.544       .  S
C1573      C1579   1.533       .  S
C1573      C1577   1.527       .  S
C1573      C1880   1.563       .  S
C1574      H1581   1.075       .  S
C1574      C1575   1.376       .  D
C1575      C1576   1.560       .  S
C1575      C1852   1.526       .  S
C1576      C1580   1.552       .  S
C1576      C1578   1.554       .  S
C1576      H1582   1.104       .  S
C1577      H1583   1.087       .  S
C1577      C1578   1.362       .  D
C1578      C1824   1.496       .  S
C1579      H1584   1.082       .  S
C1579      C1580   1.370       .  D
C1580      C1592   1.514       .  S
C1585      C1586   1.546       .  S
C1585      C1591   1.536       .  S
C1585      C1589   1.523       .  S
C1585      C1761   1.560       .  S
C1586      H1593   1.079       .  S
C1586      C1587   1.381       .  D
C1587      C1588   1.554       .  S
C1587      C1796   1.518       .  S
C1588      C1592   1.548       .  S
C1588      C1590   1.546       .  S
C1588      H1594   1.105       .  S
C1589      H1595   1.087       .  S
C1589      C1590   1.358       .  D
C1590      C1740   1.485       .  S
C1591      H1596   1.081       .  S
C1591      C1592   1.369       .  D
Zr1597     O1598   2.438   1_554  S
Zr1597     O1599   2.450       .  S
O1598      H1654   0.990       .  S
O1599      C1619   1.288       .  A
O1600      C1621   1.286   1_556  A
O1601     Zr1611   2.424       .  S
O1601      C1620   1.282   1_554  A
O1602     Zr1610   2.452       .  S
O1602      C1621   1.288       .  A
O1603      C1620   1.287       .  A
O1604      C1619   1.285       .  A
O1605     Zr1610   2.392       .  S
O1606     Zr1611   2.390       .  S
O1606      H1641   0.965       .  S
O1607     Zr1610   2.401   1_556  S
O1607      H1644   0.965       .  S
O1608     Zr1611   2.392   1_556  S
Zr1609     O1634   2.438       .  S
Zr1609     O1628   2.435       .  S
Zr1609     O1636   2.447       .  S
Zr1609     O1624   2.456       .  S
Zr1609     O1617   2.384       .  S
Zr1609     O1618   2.384       .  S
Zr1610     O1629   2.436       .  S
Zr1610     O1622   2.433       .  S
Zr1610     O1623   2.451       .  S
Zr1610     O1616   2.397       .  S
Zr1611     O1613   2.434   1_554  S
Zr1611     O1635   2.436       .  S
Zr1611     O1637   2.430       .  S
Zr1611     O1615   2.394       .  S
Zr1612     O1639   2.436       .  S
O1613      H1650   0.990   1_556  S
O1614      H1645   0.990       .  S
O1614      H1659   0.989       .  S
O1616      H1642   0.967       .  S
O1617     Zr1627   2.377   1_554  S
O1618     Zr1627   2.371   1_554  S
C1619      C1873   1.505       .  S
C1620      C2020   1.480       .  S
C1621      C2048   1.491   1_554  S
O1622      H1658   0.990       .  S
O1623      C1625   1.288       .  A
C1625      C1817   1.498       .  S
O1626     Zr1627   2.436       .  S
O1626      H1655   0.990       .  S
Zr1627     O1632   2.450       .  S
O1628      C1633   1.284       .  A
O1629      H1646   0.990       .  S
O1629      H1661   0.990       .  S
O1631      H1660   0.990       .  S
O1632      C1633   1.288   1_556  A
C1633      C1985   1.502       .  S
O1634      H1653   0.990       .  S
O1634      H1657   0.990       .  S
O1635      H1649   0.990       .  S
O1635      H1656   0.990       .  S
O1637      C1640   1.283       .  A
O1638      H1648   0.990       .  S
O1639      H1652   0.990       .  S
C1640      C1845   1.487       .  S
Zr1663     O1664   2.437       .  S
Zr1663     O1665   2.440       .  S
O1664      H1720   0.990       .  S
O1665      C1685   1.283       .  A
O1666      C1687   1.285       .  A
O1667     Zr1677   2.447       .  S
O1667      C1686   1.288       .  A
O1668     Zr1676   2.441       .  S
O1668      C1687   1.286       .  A
O1669      C1686   1.284       .  A
O1670      C1685   1.281       .  A
O1671     Zr1676   2.397       .  S
O1671     Zr1678   2.381   1_665  S
O1672     Zr1677   2.391       .  S
O1672      H1707   0.965       .  S
O1673     Zr1676   2.398       .  S
O1673      H1710   0.967       .  S
O1674     Zr1677   2.393       .  S
Zr1675     O1700   2.440       .  S
Zr1675     O1694   2.431       .  S
Zr1675     O1702   2.438   1_655  S
Zr1675     O1690   2.440       .  S
Zr1675     O1683   2.381       .  S
Zr1675     O1684   2.383   1_655  S
Zr1676     O1695   2.438       .  S
Zr1676     O1688   2.432       .  S
Zr1676     O1689   2.438       .  S
Zr1676     O1682   2.401       .  S
Zr1677     O1679   2.433       .  S
Zr1677     O1701   2.437       .  S
Zr1677     O1703   2.434       .  S
Zr1677     O1681   2.396       .  S
Zr1678     O1680   2.439   1_445  S
Zr1678     O1682   2.404   1_445  S
O1679      H1716   0.990       .  S
O1680      H1711   0.990       .  S
O1680      H1725   0.990       .  S
O1682      H1708   0.967       .  S
O1683     Zr1693   2.376       .  S
O1684     Zr1693   2.368   1_455  S
C1685      C1768   1.481       .  S
C1686      C1964   1.500       .  S
C1687      C1936   1.494       .  S
O1688      H1724   0.989       .  S
O1689      C1691   1.286       .  A
C1691      C1733   1.494       .  S
O1692     Zr1693   2.433       .  S
O1692      H1721   0.990       .  S
Zr1693     O1698   2.437       .  S
O1694      C1699   1.284       .  A
O1695      H1712   0.990       .  S
O1695      H1727   0.990       .  S
O1697      H1726   0.990       .  S
O1698      C1699   1.284       .  A
C1699      C1901   1.494       .  S
O1700      H1719   0.990       .  S
O1700      H1723   0.991       .  S
O1701      H1715   0.990       .  S
O1701      H1722   0.990       .  S
O1703      C1706   1.285       .  A
O1704      H1714   0.990       .  S
C1706      C1789   1.487       .  S
C1729      C1730   1.408       .  A
C1729      C1734   1.412       .  A
C1729      C1747   1.451       .  S
C1730      C1735   1.494       .  S
C1730      C1731   1.408       .  A
C1731      C1732   1.411       .  A
C1731      C1736   1.452       .  S
C1732      C1733   1.418       .  A
C1732      C1748   1.448   1_565  S
C1733      C1734   1.418       .  A
C1734      C1737   1.450       .  S
C1735      C1738   1.411       .  A
C1735      C1742   1.411       .  A
C1736      N1753   1.157       .  T
C1738      C1739   1.408       .  A
C1738      C1743   1.451       .  S
C1739      C1740   1.413       .  A
C1739      C1745   1.451       .  S
C1740      C1741   1.406       .  A
C1741      C1742   1.410       .  A
C1741      C1744   1.442       .  S
C1742      C1746   1.450       .  S
C1743      N1750   1.157       .  T
C1744      N1751   1.154       .  T
C1745      N1749   1.157       .  T
C1746      N1752   1.157       .  T
C1747      N1756   1.157       .  T
C1748      N1754   1.156       .  T
C1757      C1758   1.410       .  A
C1757      C1762   1.419       .  A
C1757      C1775   1.452       .  S
C1758      C1763   1.504       .  S
C1758      C1759   1.406       .  A
C1759      C1760   1.410       .  A
C1759      C1764   1.453       .  S
C1760      C1761   1.432       .  A
C1760      C1776   1.454       .  S
C1761      C1762   1.427       .  A
C1762      C1765   1.448       .  S
C1763      C1766   1.416       .  A
C1763      C1770   1.414       .  A
C1764      N1781   1.157       .  T
C1765      N1783   1.158       .  T
C1766      C1767   1.413       .  A
C1766      C1771   1.451       .  S
C1767      C1768   1.412       .  A
C1767      C1773   1.452   1_565  S
C1768      C1769   1.409       .  A
C1769      C1770   1.411       .  A
C1769      C1772   1.450       .  S
C1770      C1774   1.450       .  S
C1771      N1778   1.157   1_565  T
C1774      N1780   1.157       .  T
C1775      N1784   1.157       .  T
C1776      N1782   1.158       .  T
C1785      C1786   1.411       .  A
C1785      C1790   1.410       .  A
C1785      C1803   1.450       .  S
C1786      C1791   1.501       .  S
C1786      C1787   1.412       .  A
C1787      C1788   1.415       .  A
C1787      C1792   1.450       .  S
C1788      C1789   1.415       .  A
C1788      C1804   1.450       .  S
C1789      C1790   1.413       .  A
C1790      C1793   1.451       .  S
C1791      C1794   1.408       .  A
C1791      C1798   1.406       .  A
C1792      N1809   1.157       .  T
C1793      N1811   1.157       .  T
C1794      C1795   1.417       .  A
C1794      C1799   1.452       .  S
C1795      C1796   1.426       .  A
C1795      C1801   1.448       .  S
C1796      C1797   1.426       .  A
C1797      C1798   1.412       .  A
C1797      C1800   1.451       .  S
C1798      C1802   1.451       .  S
C1799      N1806   1.157       .  T
C1800      N1807   1.158       .  T
C1801      N1805   1.158       .  T
C1802      N1808   1.157       .  T
C1803      N1812   1.157       .  T
C1813      C1814   1.412       .  A
C1813      C1818   1.418       .  A
C1813      C1831   1.450       .  S
C1814      C1819   1.506       .  S
C1814      C1815   1.411       .  A
C1815      C1816   1.413       .  A
C1815      C1820   1.451       .  S
C1816      C1817   1.417       .  A
C1816      C1832   1.450       .  S
C1817      C1818   1.417       .  A
C1818      C1821   1.450       .  S
C1819      C1822   1.411       .  A
C1819      C1826   1.414       .  A
C1820      N1837   1.157       .  T
C1821      N1839   1.157       .  T
C1822      C1823   1.411       .  A
C1822      C1827   1.451       .  S
C1823      C1824   1.413       .  A
C1823      C1829   1.451       .  S
C1824      C1825   1.412       .  A
C1825      C1826   1.418       .  A
C1825      C1828   1.446       .  S
C1826      C1830   1.450       .  S
C1827      N1834   1.157       .  T
C1828      N1835   1.156       .  T
C1829      N1833   1.157       .  T
C1830      N1836   1.158       .  T
C1831      N1840   1.157       .  T
C1841      C1842   1.414       .  A
C1841      C1846   1.415       .  A
C1841      C1859   1.450       .  S
C1842      C1847   1.507       .  S
C1842      C1843   1.413       .  A
C1843      C1844   1.414       .  A
C1843      C1848   1.450       .  S
C1844      C1845   1.411       .  A
C1844      C1860   1.450       .  S
C1845      C1846   1.413       .  A
C1846      C1849   1.451       .  S
C1847      C1850   1.409       .  A
C1847      C1854   1.407       .  A
C1848      N1865   1.157       .  T
C1849      N1867   1.157       .  T
C1850      C1851   1.418       .  A
C1850      C1855   1.451       .  S
C1851      C1852   1.425       .  A
C1851      C1857   1.447       .  S
C1852      C1853   1.430       .  A
C1853      C1854   1.415       .  A
C1853      C1856   1.452       .  S
C1854      C1858   1.452       .  S
C1855      N1862   1.157       .  T
C1856      N1863   1.158       .  T
C1857      N1861   1.158       .  T
C1858      N1864   1.157       .  T
C1859      N1868   1.157       .  T
C1860      N1866   1.157       .  T
C1869      C1870   1.412       .  A
C1869      C1874   1.417       .  A
C1869      C1887   1.451       .  S
C1870      C1875   1.510       .  S
C1870      C1871   1.413       .  A
C1871      C1872   1.415       .  A
C1871      C1876   1.451       .  S
C1872      C1873   1.419       .  A
C1872      C1888   1.449       .  S
C1873      C1874   1.419       .  A
C1875      C1878   1.410       .  A
C1875      C1882   1.411       .  A
C1876      N1893   1.157       .  T
C1877      N1895   1.157       .  T
C1878      C1879   1.416       .  A
C1878      C1883   1.451       .  S
C1879      C1880   1.430       .  A
C1879      C1885   1.453       .  S
C1880      C1881   1.424       .  A
C1881      C1882   1.416       .  A
C1881      C1884   1.448       .  S
C1882      C1886   1.451       .  S
C1883      N1890   1.157       .  T
C1884      N1891   1.158       .  T
C1885      N1889   1.158       .  T
C1886      N1892   1.157       .  T
C1887      N1896   1.157       .  T
C1897      C1898   1.409       .  A
C1897      C1902   1.413       .  A
C1897      C1915   1.450       .  S
C1898      C1903   1.501       .  S
C1898      C1899   1.410       .  A
C1899      C1900   1.413       .  A
C1899      C1904   1.450       .  S
C1900      C1901   1.418       .  A
C1900      C1916   1.451       .  S
C1901      C1902   1.418       .  A
C1902      C1905   1.450       .  S
C1903      C1906   1.406       .  A
C1903      C1910   1.406       .  A
C1904      N1921   1.157       .  T
C1905      N1923   1.157       .  T
C1906      C1907   1.413       .  A
C1906      C1911   1.452       .  S
C1907      C1908   1.430       .  A
C1907      C1913   1.452       .  S
C1908      C1909   1.428       .  A
C1909      C1910   1.416       .  A
C1909      C1912   1.448       .  S
C1910      C1914   1.451       .  S
C1911      N1918   1.157       .  T
C1912      N1919   1.157       .  T
C1913      N1917   1.158       .  T
C1914      N1920   1.157       .  T
C1915      N1924   1.157       .  T
C1916      N1922   1.157       .  T
C1925      C1926   1.408       .  A
C1925      C1930   1.414       .  A
C1925      C1943   1.451       .  S
C1926      C1931   1.504       .  S
C1926      C1927   1.406       .  A
C1927      C1928   1.417       .  A
C1927      C1932   1.453       .  S
C1928      C1929   1.430       .  A
C1928      C1944   1.448       .  S
C1929      C1930   1.425       .  A
C1930      C1933   1.451       .  S
C1931      C1934   1.413       .  A
C1931      C1938   1.409       .  A
C1932      N1949   1.157       .  T
C1933      N1951   1.157       .  T
C1934      C1935   1.415       .  A
C1934      C1939   1.450       .  S
C1935      C1936   1.416       .  A
C1935      C1941   1.450       .  S
C1936      C1937   1.417       .  A
C1937      C1938   1.411       .  A
C1937      C1940   1.450       .  S
C1938      C1942   1.450       .  S
C1939      N1946   1.157       .  T
C1940      N1947   1.157       .  T
C1941      N1945   1.157       .  T
C1942      N1948   1.156       .  T
C1943      N1952   1.157       .  T
C1944      N1950   1.158       .  T
C1953      C1954   1.411       .  A
C1953      C1958   1.408       .  A
C1953      C1971   1.451       .  S
C1954      C1959   1.494       .  S
C1954      C1955   1.412       .  A
C1955      C1956   1.409       .  A
C1955      C1960   1.449       .  S
C1956      C1957   1.407       .  A
C1956      C1972   1.446       .  S
C1957      C1958   1.412       .  A
C1958      C1961   1.451       .  S
C1959      C1962   1.407       .  A
C1959      C1966   1.408       .  A
C1960      N1977   1.157       .  T
C1961      N1979   1.157       .  T
C1962      C1963   1.410       .  A
C1962      C1967   1.453       .  S
C1963      C1964   1.422       .  A
C1963      C1969   1.450       .  S
C1964      C1965   1.420       .  A
C1965      C1966   1.413       .  A
C1965      C1968   1.449       .  S
C1966      C1970   1.452       .  S
C1967      N1974   1.157       .  T
C1968      N1975   1.157       .  T
C1970      N1976   1.157       .  T
C1971      N1980   1.157       .  T
C1972      N1978   1.155       .  T
C1981      C1982   1.409       .  A
C1981      C1986   1.413       .  A
C1981      C1999   1.451       .  S
C1982      C1987   1.502       .  S
C1982      C1983   1.410   1_556  A
C1983      C1984   1.416       .  A
C1983      C1988   1.451       .  S
C1984      C1985   1.421       .  A
C1984      C2000   1.450       .  S
C1985      C1986   1.418   1_554  A
C1986      C1989   1.450       .  S
C1987      C1990   1.407       .  A
C1987      C1994   1.408       .  A
C1988      N2005   1.157       .  T
C1989      N2007   1.157       .  T
C1990      C1991   1.411       .  A
C1990      C1995   1.452       .  S
C1991      C1992   1.428       .  A
C1991      C1997   1.453       .  S
C1992      C1993   1.426       .  A
C1993      C1994   1.417       .  A
C1993      C1996   1.449       .  S
C1994      C1998   1.450   1_556  S
C1995      N2002   1.157       .  T
C1996      N2003   1.158   1_556  T
C1997      N2001   1.158       .  T
C1998      N2004   1.157       .  T
C1999      N2008   1.157       .  T
C2000      N2006   1.157       .  T
C2009      C2010   1.416       .  A
C2009      C2014   1.413       .  A
C2009      C2027   1.450       .  S
C2010      C2015   1.505       .  S
C2010      C2011   1.415       .  A
C2011      C2012   1.410       .  A
C2011      C2016   1.451       .  S
C2012      C2013   1.412       .  A
C2012      C2028   1.452       .  S
C2013      C2014   1.408       .  A
C2014      C2017   1.448       .  S
C2015      C2018   1.416       .  A
C2015      C2022   1.416       .  A
C2016      N2033   1.157   1_556  T
C2017      N2035   1.156       .  T
C2018      C2019   1.414       .  A
C2018      C2023   1.450       .  S
C2019      C2020   1.411       .  A
C2019      C2025   1.450       .  S
C2020      C2021   1.410       .  A
C2021      C2022   1.409       .  A
C2021      C2024   1.452   1_556  S
C2022      C2026   1.451   1_556  S
C2023      N2030   1.157       .  T
C2024      N2031   1.157       .  T
C2025      N2029   1.157       .  T
C2026      N2032   1.157       .  T
C2027      N2036   1.157       .  T
C2028      N2034   1.157       .  T
C2037      C2038   1.406       .  A
C2037      C2042   1.415       .  A
C2037      C2055   1.452       .  S
C2038      C2043   1.506       .  S
C2038      C2039   1.406       .  A
C2039      C2040   1.417       .  A
C2039      C2044   1.452       .  S
C2040      C2041   1.430       .  A
C2040      C2056   1.447       .  S
C2041      C2042   1.431       .  A
C2042      C2045   1.452       .  S
C2043      C2046   1.414       .  A
C2043      C2050   1.412       .  A
C2044      N2061   1.157       .  T
C2045      N2063   1.158       .  T
C2046      C2047   1.415   1_556  A
C2046      C2051   1.450   1_556  S
C2047      C2048   1.413   1_554  A
C2047      C2053   1.450       .  S
C2048      C2049   1.414       .  A
C2049      C2050   1.414       .  A
C2049      C2052   1.450       .  S
C2050      C2054   1.450       .  S
C2051      N2058   1.157       .  T
C2052      N2059   1.157       .  T
C2053      N2057   1.157       .  T
C2054      N2060   1.157       .  T
C2055      N2064   1.157       .  T
C2056      N2062   1.158       .  T
