geometry optimzed in LAMMPS
_audit_creation_date              2020-12-01 
_audit_creation_method            'lammps2cif' 
_symmetry_space_group_name_H-M    'P1' 
_symmetry_Int_Tables_number       1 
_symmetry_cell_setting            triclinic 
loop_ 
_symmetry_equiv_pos_as_xyz 
  x,y,z 
_cell_length_a                    35.55793642 
_cell_length_b                    35.5720875712431 
_cell_length_c                    32.93231711276504 
_cell_angle_alpha                 91.19260900479715 
_cell_angle_beta                  90.03698131278274 
_cell_angle_gamma                 119.99799408395484 
loop_ 
_atom_site_label 
_atom_site_type_symbol 
_atom_site_fract_x 
_atom_site_fract_y 
_atom_site_fract_z 
_atom_site_charge 
C1          C  0.49070388  0.70732949  0.11751981     0.82400
N2          N  0.49269991  0.71489578  0.15844688    -0.75900
C3          C  0.49327083  0.75124366  0.17351090     0.84800
N4          N  0.49184107  0.77951962  0.14752921    -0.75900
C5          C  0.48985734  0.77207247  0.10693371     0.84900
N6          N  0.48924331  0.73599765  0.09186388    -0.77600
C7          C  0.49990569  0.72458587  0.35687460     0.82400
N8          N  0.50027701  0.76062622  0.37155504    -0.75900
C9          C  0.49961237  0.78939946  0.34558061     0.84800
N10         N  0.49842970  0.78187085  0.30471547    -0.75900
C11         C  0.49800527  0.74546726  0.29001920     0.84900
N12         N  0.49875381  0.71710181  0.31633399    -0.77600
C13         C  0.26548594  0.79374469  0.34068654     0.82400
N14         N  0.23105107  0.76024046  0.35859659    -0.75900
C15         C  0.19865264  0.72864217  0.33544046     0.84800
N16         N  0.20086180  0.73053253  0.29426311    -0.75900
C17         C  0.23545144  0.76417547  0.27621126     0.84900
N18         N  0.26763784  0.79566290  0.29963419    -0.77600
C19         C  0.25012416  0.77301190  0.10202978     0.82400
N20         N  0.24742284  0.77238890  0.14322522    -0.75900
C21         C  0.21337571  0.73856001  0.16164340     0.84800
N22         N  0.18235601  0.70552637  0.13860976    -0.75900
C23         C  0.18501991  0.70606356  0.09757619     0.84900
N24         N  0.21891235  0.73976293  0.07923945    -0.77600
C25         C  0.18290420  0.46596437  0.10588015     0.82400
N26         N  0.18014208  0.46837487  0.14684547    -0.75900
C27         C  0.21164792  0.46982651  0.17127981     0.84800
N28         N  0.24612058  0.46889768  0.15435350    -0.75900
C29         C  0.24886668  0.46641836  0.11333524     0.84900
N30         N  0.21730237  0.46508902  0.08915189    -0.77600
C31         C  0.20125924  0.48869174  0.34408845     0.82400
N32         N  0.23375134  0.49172824  0.36807279    -0.75900
C33         C  0.26758055  0.48989691  0.35116903     0.84800
N34         N  0.26894558  0.48508322  0.31033459    -0.75900
C35         C  0.23655776  0.48202978  0.28615678     0.84900
N36         N  0.20262995  0.48384385  0.30319870    -0.77600
C37         C  0.77550698  0.27484559  0.33533241     0.82400
N38         N  0.77176042  0.26602133  0.29458599    -0.75900
C39         C  0.73670315  0.22919197  0.27927927     0.84800
N40         N  0.70581253  0.20169892  0.30481259    -0.75900
C41         C  0.70944302  0.21034786  0.34524585     0.84900
N42         N  0.74423125  0.24692268  0.36060318    -0.77600
C43         C  0.77193140  0.25734891  0.09674181     0.82400
N44         N  0.73605420  0.22169364  0.08168910    -0.75900
C45         C  0.70705611  0.19205419  0.10738595     0.84800
N46         N  0.71393180  0.19842764  0.14826651    -0.75900
C47         C  0.75009434  0.23438314  0.16330619     0.84900
N48         N  0.77882858  0.26358119  0.13732666    -0.77600
C49         C  0.70782741  0.49802867  0.10974805     0.82400
N50         N  0.73683989  0.49359243  0.08627420    -0.75900
C51         C  0.77261897  0.49585103  0.10358434     0.84800
N52         N  0.77928740  0.50245537  0.14431606    -0.75900
C53         C  0.75039649  0.50692583  0.16791408     0.84900
N54         N  0.71462167  0.50464170  0.15045503    -0.77600
C55         C  0.70780458  0.52013044  0.34694603     0.82400
N56         N  0.70420264  0.51934992  0.30586162    -0.75900
C57         C  0.73505789  0.51858420  0.28212919     0.84800
N58         N  0.76956421  0.51848887  0.29981247    -0.75900
C59         C  0.77328498  0.51937063  0.34085367     0.84900
N60         N  0.74232591  0.52003981  0.36444959    -0.77600
C61         C  0.47076791  0.21342350  0.35014932     0.82400
N62         N  0.47322502  0.24695183  0.37284753    -0.75900
C63         C  0.47254116  0.28040842  0.35437960     0.84800
N64         N  0.46953895  0.28037764  0.31335607    -0.75900
C65         C  0.46707936  0.24704813  0.29050212     0.84900
N66         N  0.46775389  0.21353858  0.30903661    -0.77600
C67         C  0.46716162  0.19125939  0.11257148     0.82400
N68         N  0.46645736  0.22463944  0.09410206    -0.75900
C69         C  0.46416147  0.25572898  0.11674705     0.84800
N70         N  0.46283437  0.25351636  0.15788205    -0.75900
C71         C  0.46351539  0.22003320  0.17646419     0.84900
N72         N  0.46564457  0.18898818  0.15361972    -0.77600
O73         O  0.51444203  0.58988732  0.07110831    -0.73100
O74         O  0.45617199  0.58236732  0.03473310    -0.52000
C75         C  0.48629532  0.60119159  0.06195696     0.80600
O76         O  0.59887708  0.54475245  0.40648556    -0.57700
O77         O  0.59231729  0.48704231  0.44154148    -0.50800
C78         C  0.61008238  0.51651267  0.41474027     0.72600
O79         O  0.52766793  0.61959538  0.41366886    -0.72300
O80         O  0.46790529  0.60966394  0.44848014    -0.52900
C81         C  0.49872747  0.62970747  0.42326564     0.78600
O82         O  0.58777754  0.51625998  0.06811951    -0.57400
O83         O  0.57905674  0.45724976  0.03108471    -0.50600
C84         C  0.59886633  0.48806694  0.05766968     0.75200
Zr85       Zr  0.53142449  0.53358781  0.04967396     2.54700
O86         O  0.59989387  0.60197731  0.05101846    -0.78000
O87         O  0.52808084  0.52900323  0.12339349    -0.91400
Zr88       Zr  0.54558090  0.56387851  0.43054396     2.64700
O89         O  0.61448075  0.63167468  0.43720806    -0.96400
O90         O  0.54470016  0.56698656  0.35683278    -0.78400
O91         O  0.52458190  0.58464339  0.49136838    -0.81800
O92         O  0.56786188  0.54387323  0.49021696    -2.16500
O93         O  0.43798199  0.36829924  0.06858310    -0.65200
O94         O  0.49537782  0.37475069  0.03179105    -0.49700
C95         C  0.46599401  0.35688558  0.05887394     0.73600
O96         O  0.37785007  0.46771798  0.40831008    -0.58100
O97         O  0.38607606  0.52674513  0.44482850    -0.50100
C98         C  0.36698724  0.49621160  0.41790960     0.75400
O99         O  0.45243995  0.39569750  0.40654293    -0.69500
O100        O  0.51104482  0.40421354  0.44298823    -0.48200
C101        C  0.48064741  0.38469630  0.41624444     0.76800
O102        O  0.36338724  0.44043339  0.06701828    -0.64800
O103        O  0.37226246  0.49930437  0.03229952    -0.52000
C104        C  0.35278844  0.46901820  0.05806720     0.75200
Zr105      Zr  0.41917519  0.42256578  0.04763714     2.77500
O106        O  0.35042866  0.35430422  0.04535672    -0.95600
O107        O  0.42091611  0.42713620  0.12153059    -0.76400
Zr108      Zr  0.43424938  0.45111484  0.42736610     2.70100
O109        O  0.36644532  0.38212241  0.42785529    -0.77600
O110        O  0.43440289  0.45352347  0.35354833    -0.96700
Zr111      Zr  0.44734812  0.54756718  0.49013282     2.21500
Zr112      Zr  0.53220561  0.46661036  0.48776164     2.11100
O113        O  0.45480946  0.43001450  0.48730479    -2.45400
O114        O  0.41175649  0.47053182  0.48823181    -0.77400
O115        O  0.49616491  0.45658662  0.04893483    -0.69600
O116        O  0.46862967  0.52796574  0.42835425    -2.30600
O117        O  0.45457726  0.49949533  0.04957776    -2.26800
O118        O  0.51130421  0.48691374  0.42706414    -0.71400
H119        H  0.59903277  0.55642017  0.49044130     0.80600
H120        H  0.45919289  0.53733695  0.40506563     0.81700
H121        H  0.44257495  0.39889831  0.48652764     0.83900
H122        H  0.44528337  0.50908081  0.07319332     0.81500
H123        H  0.53165693  0.53634609  0.34738735     0.44600
H124        H  0.46303852  0.45755208  0.34570869     0.43500
H125        H  0.35213924  0.38340665  0.45321273     0.43200
H126        H  0.35547431  0.33497947  0.02690572     0.41200
H127        H  0.45182170  0.43870798  0.12896242     0.44300
H128        H  0.49994306  0.52664513  0.13050570     0.39100
H129        H  0.60116373  0.61445087  0.02411669     0.45200
H130        H  0.63533657  0.62337046  0.44772197     0.41600
H131        H  0.34796244  0.34210303  0.07261981     0.46500
H132        H  0.55017194  0.55836337  0.13334893     0.45200
H133        H  0.62355681  0.64022670  0.40889136     0.45400
H134        H  0.41329210  0.42342900  0.34454102     0.45700
O135        O  0.05969645  0.61668568  0.38450292    -0.73100
O136        O  0.11074580  0.60967587  0.42052091    -0.52000
C137        C  0.09917025  0.62790304  0.39382336     0.80600
O138        O  0.90398059  0.51442148  0.04765692    -0.57700
O139        O  0.85326617  0.45679890  0.00958095    -0.50800
C140        C  0.86461954  0.48628842  0.03760777     0.72600
O141        O  0.05045159  0.59108568  0.04463300    -0.72300
O142        O  0.10071576  0.58123805  0.01008867    -0.52900
C143        C  0.08966539  0.60168640  0.03555194     0.78600
O144        O  0.91294238  0.54239604  0.38478499    -0.57400
O145        O  0.86313570  0.48400074  0.42017730    -0.50600
C146        C  0.87383583  0.51410016  0.39426945     0.75200
Zr147      Zr  0.98675048  0.56090318  0.40426682     2.54700
O148        O  0.98652995  0.62923027  0.40489649    -0.78000
O149        O  0.98502130  0.55614543  0.33033482    -0.91400
Zr150      Zr  0.97708302  0.53373776  0.02611216     2.64700
O151        O  0.97585426  0.60156379  0.02611838    -0.96400
O152        O  0.98016244  0.53317475  0.09995348    -0.78400
O153        O  0.02936577  0.58477368  0.46496474    -0.81800
O154        O  0.94480067  0.54096794  0.46429995    -2.16500
O155        O  0.91517180  0.39488657  0.38056070    -0.65200
O156        O  0.86434735  0.40119658  0.41791144    -0.49700
C157        C  0.87572958  0.38294028  0.39019729     0.73600
O158        O  0.04904881  0.43887665  0.04533232    -0.58100
O159        O  0.09984791  0.49753243  0.01107365    -0.50100
C160        C  0.08839792  0.46741668  0.03712533     0.75400
O161        O  0.90286750  0.36652077  0.04190691    -0.69500
O162        O  0.85269310  0.37493026  0.00589455    -0.48200
C163        C  0.86372260  0.35563542  0.03179819     0.76800
O164        O  0.06192305  0.46651571  0.38684700    -0.64800
O165        O  0.11199657  0.52688524  0.42252619    -0.52000
C166        C  0.10111105  0.49537105  0.39683528     0.76400
Zr167      Zr  0.98820672  0.44999592  0.40348687     2.77500
O168        O  0.98688963  0.38089937  0.40391263    -0.95600
O169        O  0.99066343  0.45328683  0.32969263    -0.76400
Zr170      Zr  0.97636481  0.42169955  0.02405621     2.70100
O171        O  0.97532177  0.35276514  0.02154356    -0.77600
O172        O  0.97691634  0.42400046  0.09800971    -0.96700
Zr173      Zr  0.07103231  0.54918274  0.46526345     2.21500
Zr174      Zr  0.90423788  0.46344479  0.46393888     2.11100
O175        O  0.94637979  0.42832425  0.46353533    -2.45400
O176        O  0.03074636  0.47184338  0.46417302    -0.77400
O177        O  0.94517126  0.48384256  0.40294095    -0.69600
O178        O  0.01872288  0.49853935  0.02682342    -2.30600
O179        O  0.02967458  0.52695044  0.40345036    -2.26800
O180        O  0.93454584  0.45685388  0.02561358    -0.71400
H181        H  0.92572461  0.55298120  0.46445063     0.80600
H182        H  0.03745124  0.50806409  0.05059003     0.81700
H183        H  0.92789297  0.39714737  0.46333475     0.83900
H184        H  0.04841917  0.53600309  0.38016402     0.81500
H185        H  0.95765237  0.50339565  0.10706612     0.44600
H186        H  0.94999168  0.42410603  0.10543330     0.43500
H187        H  0.99382267  0.35511430  0.99817641     0.43200
H188        H  0.96099727  0.36151846  0.41987763     0.41200
H189        H  0.97068697  0.46399434  0.32245859     0.44300
H190        H  0.01210730  0.55640248  0.32283610     0.39100
H191        H  0.99998615  0.64327331  0.43135423     0.45200
H192        H  0.95036537  0.59535535  0.00905522     0.41600
H193        H  0.97915460  0.36941142  0.37565104     0.46500
H194        H  0.98962053  0.58463357  0.32171682     0.45200
H195        H  0.96746545  0.60481676  0.05407451     0.45400
H196        H  0.97156417  0.39500192  0.10577942     0.45700
O197        O  0.52650958  0.93164341  0.39320221    -0.73100
O198        O  0.46964592  0.88094555  0.42961589    -0.52000
C199        C  0.49871987  0.89222085  0.40206911     0.80600
O200        O  0.58892893  0.05116453  0.06059463    -0.57700
O201        O  0.58449595  0.10244473  0.02353056    -0.50800
C202        C  0.60154202  0.09070587  0.05140962     0.72600
O203        O  0.51513894  0.90435874  0.05181180    -0.72300
O204        O  0.45404528  0.85510360  0.01675630    -0.52900
C205        C  0.48543300  0.86541682  0.04198626     0.78600
O206        O  0.59932989  0.07894545  0.39886287    -0.57400
O207        O  0.58955682  0.12885700  0.43516456    -0.50600
C208        C  0.60948609  0.11808832  0.40906019     0.75200
Zr209      Zr  0.54453313  0.00487260  0.41626105     2.54700
O210        O  0.61317102  0.00525438  0.41824901    -0.78000
O211        O  0.54435927  0.00676880  0.34236726    -0.91400
Zr212      Zr  0.53399896  0.97859704  0.03609656     2.64700
O213        O  0.60192470  0.97753847  0.03333917    -0.96400
O214        O  0.53152795  0.97494634  0.10984382    -0.78400
O215        O  0.52576649  0.96311429  0.47603693    -0.81800
O216        O  0.56556924  0.04719846  0.47730300    -2.16500
O217        O  0.44895117  0.07558477  0.39629218    -0.65200
O218        O  0.50637223  0.12689193  0.43402394    -0.49700
C219        C  0.47658368  0.11514883  0.40662866     0.73600
O220        O  0.36614456  0.91015193  0.05484739    -0.58100
O221        O  0.37223609  0.85835886  0.01798906    -0.50100
C222        C  0.35391634  0.87049010  0.04472698     0.75400
O223        O  0.44485428  0.05666700  0.05776357    -0.69500
O224        O  0.50394460  0.10583377  0.02261507    -0.48200
C225        C  0.47390584  0.09557623  0.04892120     0.76800
O226        O  0.37621374  0.92897312  0.39699689    -0.64800
O227        O  0.38649212  0.87941484  0.43110961    -0.52000
C228        C  0.36629492  0.88996859  0.40550577     0.75200
Zr229      Zr  0.43169282  0.00283765  0.41662856     2.77500
O230        O  0.36232563  0.00099986  0.41714163    -0.95600
O231        O  0.43321840  0.00006920  0.34278380    -0.76400
Zr232      Zr  0.42403013  0.98249362  0.03653816     2.70100
O233        O  0.35813807  0.98732563  0.03498472    -0.77600
O234        O  0.42505399  0.98097823  0.11042721    -0.96700
Zr235      Zr  0.44852505  0.92116446  0.47572586     2.21500
Zr236      Zr  0.52814024  0.08728703  0.47826000     2.11100
O237        O  0.45097342  0.04527595  0.47769183    -2.45400
O238        O  0.41137060  0.96136670  0.47642614    -0.77400
O239        O  0.50849677  0.04598961  0.41618896    -0.69600
O240        O  0.45685959  0.93862194  0.03654387    -2.30600
O241        O  0.46774165  0.96192400  0.41507868    -2.26800
O242        O  0.50118425  0.02257338  0.03814171    -0.71400
H243        H  0.59666007  0.06630813  0.47741500     0.80600
H244        H  0.44710823  0.91990745  0.05965694     0.81700
H245        H  0.43812271  0.06363483  0.47806331     0.83900
H246        H  0.45830187  0.94300949  0.39126318     0.81500
H247        H  0.51261492  0.98680902  0.11788886     0.44600
H248        H  0.45142532  0.00833633  0.11891068     0.43500
H249        H  0.34216528  0.97020441  0.01043409     0.43200
H250        H  0.36698213  0.02531953  0.43559804     0.41200
H251        H  0.46392546  0.02020888  0.33599216     0.44300
H252        H  0.51538460  0.98271002  0.33386811     0.39100
H253        H  0.60897890  0.98369552  0.43889863     0.45200
H254        H  0.62191717  0.00356972  0.01798895     0.41600
H255        H  0.35962803  0.01045317  0.38975526     0.46500
H256        H  0.56479236  0.99689781  0.33387848     0.45200
H257        H  0.61339548  0.98432992  0.06156499     0.45400
H258        H  0.40061586  0.98511078  0.11887579     0.45700
C259        C  0.46437681  0.32118778  0.07999290    -0.11100
C260        C  0.46390749  0.29130943  0.09713725    -0.12700
C261        C  0.47011245  0.15857265  0.08890619    -0.11100
C262        C  0.47234822  0.13031006  0.07019489    -0.12700
C263        C  0.46472901  0.24852232  0.24585783    -0.14300
C264        C  0.46327304  0.21732597  0.22113173    -0.29400
H265        H  0.46517876  0.27665234  0.23306327     0.14800
H266        H  0.46311397  0.18934180  0.23392832     0.15300
C267        C  0.47537293  0.31623452  0.37785158    -0.11100
C268        C  0.47777299  0.34734268  0.39568014    -0.12700
C269        C  0.47211548  0.17818917  0.36955661    -0.11100
C270        C  0.47383401  0.14906131  0.38610482    -0.12700
C271        C  0.64522587  0.51806726  0.39187721    -0.11100
C272        C  0.67423368  0.51942234  0.37177635    -0.12700
C273        C  0.80931488  0.51827957  0.35921289    -0.11100
C274        C  0.83914653  0.51663791  0.37474002    -0.12700
C275        C  0.66943273  0.49481250  0.09175138    -0.11100
C276        C  0.63701281  0.49175352  0.07670266    -0.12700
C277        C  0.75762186  0.51273195  0.21231298    -0.14300
C278        C  0.72963153  0.51606198  0.23752767    -0.29400
H279        H  0.78616635  0.51305825  0.22456018     0.14800
H280        H  0.70104262  0.51562591  0.22526668     0.15300
C281        C  0.80351942  0.49121646  0.07900902    -0.11100
C282        C  0.83073271  0.48825764  0.05958326    -0.12700
C283        C  0.66889294  0.15455841  0.09083579    -0.11100
C284        C  0.63783682  0.12465725  0.07389552    -0.12700
C285        C  0.80224238  0.28947859  0.07025765    -0.11100
C286        C  0.82963229  0.31902240  0.05138554    -0.12700
C287        C  0.64611386  0.15258420  0.38954463    -0.11100
C288        C  0.67608496  0.18036064  0.37120864    -0.12700
C289        C  0.73030304  0.21846466  0.23533737    -0.14300
C290        C  0.75839126  0.24367002  0.20735659    -0.29400
H291        H  0.70070901  0.18920655  0.22575486     0.14800
H292        H  0.78793597  0.27301441  0.21687083     0.15300
C293        C  0.81214282  0.31382584  0.35208291    -0.11100
C294        C  0.84158275  0.34575416  0.36859488    -0.12700
C295        C  0.30170677  0.49241941  0.37635749    -0.11100
C296        C  0.33104620  0.49411991  0.39615039    -0.12700
C297        C  0.13568500  0.49225590  0.37767085    -0.11100
C298        C  0.16539997  0.49043834  0.36205523    -0.12700
C299        C  0.20826601  0.47344776  0.21577458    -0.14300
C300        C  0.23909974  0.47700483  0.24176223    -0.29400
H301        H  0.17985861  0.47387686  0.22730946     0.14800
H302        H  0.26751962  0.47662599  0.23020365     0.15300
C303        C  0.31625763  0.46708922  0.07868271    -0.11100
C304        C  0.28562474  0.46633573  0.09526403    -0.12700
C305        C  0.12217874  0.46602117  0.05971934    -0.11100
C306        C  0.14999423  0.46552615  0.08027620    -0.12700
C307        C  0.12390568  0.63936262  0.05577943    -0.11100
C308        C  0.15223103  0.67044035  0.07388915    -0.12700
C309        C  0.28643750  0.80826418  0.08243473    -0.11100
C310        C  0.31701942  0.83698121  0.06526999    -0.12700
C311        C  0.13316052  0.66342735  0.37234011    -0.11100
C312        C  0.16248113  0.69301261  0.35475801    -0.12700
C313        C  0.23915777  0.76701675  0.23154072    -0.14300
C314        C  0.20943375  0.73648112  0.20630143    -0.29400
H315        H  0.26748289  0.79486248  0.21919607     0.14800
H316        H  0.18123724  0.70854293  0.21869430     0.15300
C317        C  0.30001033  0.82694956  0.36500040    -0.11100
C318        C  0.32990627  0.85541684  0.38416749    -0.12700
C319        C  0.50051854  0.69396677  0.38382156    -0.11100
C320        C  0.50032869  0.66569185  0.40328997    -0.12700
C321        C  0.50007882  0.82753314  0.36198356    -0.11100
C322        C  0.50004079  0.85785404  0.37928063    -0.12700
C323        C  0.48986487  0.66904590  0.10082337    -0.11100
C324        C  0.48863223  0.63787349  0.08392685    -0.12700
C325        C  0.48710343  0.83066591  0.06149783    -0.11100
C326        C  0.48834480  0.80269838  0.08041459    -0.12700
C327        C  0.49513141  0.76112588  0.21756180    -0.14300
C328        C  0.49663710  0.73554792  0.24600710    -0.29400
H329        H  0.49506986  0.79060778  0.22676498     0.14800
H330        H  0.49666306  0.70603012  0.23687139     0.15300
C331        C  0.50252595  0.73411718  0.61676045     0.82400
N332        N  0.50042209  0.73370490  0.65776795    -0.75900
C333        C  0.49788523  0.76559990  0.67868107     0.84800
N334        N  0.49741680  0.79818086  0.65802251    -0.75900
C335        C  0.49945250  0.79856636  0.61671662     0.84900
N336        N  0.50193388  0.76642988  0.59617879    -0.77600
C337        C  0.48922935  0.69768252  0.85169185     0.82400
N338        N  0.48959132  0.73119224  0.87249629    -0.75900
C339        C  0.49166578  0.76491142  0.85214783     0.84800
N340        N  0.49325557  0.76520514  0.81111730    -0.75900
C341        C  0.49288593  0.73191676  0.78994876     0.84900
N342        N  0.49089740  0.69803333  0.81036716    -0.77600
C343        C  0.25028892  0.77204075  0.83987620     0.82400
N344        N  0.21918208  0.73889960  0.86133875    -0.75900
C345        C  0.18473864  0.70546709  0.84172102     0.84800
N346        N  0.18140818  0.70507973  0.80070623    -0.75900
C347        C  0.21229592  0.73797893  0.77896595     0.84900
N348        N  0.24689166  0.77153164  0.79869357    -0.77600
C349        C  0.26435461  0.79444609  0.60279450     0.82400
N350        N  0.26600822  0.79589106  0.64391981    -0.75900
C351        C  0.23380890  0.76396807  0.66547869     0.84800
N352        N  0.19964106  0.73025061  0.64543681    -0.75900
C353        C  0.19795913  0.72881543  0.60411259     0.84900
N354        N  0.23040071  0.76090743  0.58286989    -0.77600
C355        C  0.19507556  0.49406351  0.60348036     0.82400
N356        N  0.18960335  0.49025464  0.64429378    -0.75900
C357        C  0.21874666  0.48650642  0.66807669     0.84800
N358        N  0.25343700  0.48653823  0.65070496    -0.75900
C359        C  0.25896348  0.49024937  0.60995004     0.84900
N360        N  0.22976575  0.49401728  0.58630213    -0.77600
C361        C  0.19224299  0.46736245  0.84000820     0.82400
N362        N  0.22297901  0.46638867  0.86365567    -0.75900
C363        C  0.25885940  0.46903245  0.84649906     0.84800
N364        N  0.26405488  0.47279508  0.80566995    -0.75900
C365        C  0.23344002  0.47396144  0.78186544     0.84900
N366        N  0.19751457  0.47127026  0.79922768    -0.77600
C367        C  0.76277501  0.25077229  0.83626000     0.82400
N368        N  0.76102235  0.25066576  0.79524200    -0.75900
C369        C  0.72669767  0.21837147  0.77455430     0.84800
N370        N  0.69380454  0.18594884  0.79540198    -0.75900
C371        C  0.69548048  0.18601892  0.83669434     0.84900
N372        N  0.73000796  0.21854489  0.85709031    -0.77600
C373        C  0.78311481  0.28551143  0.60117942     0.82400
N374        N  0.74902659  0.25238646  0.58082894    -0.75900
C375        C  0.71772468  0.21876847  0.60161683     0.84800
N376        N  0.72030816  0.21826326  0.64253007    -0.75900
C377        C  0.75415144  0.25112804  0.66317998     0.84900
N378        N  0.78567695  0.28486228  0.64238942    -0.77600
C379        C  0.71730494  0.52082446  0.61426301     0.82400
N380        N  0.74748783  0.51977294  0.58977841    -0.75900
C381        C  0.78149124  0.51786790  0.60621572     0.84800
N382        N  0.78516836  0.51680866  0.64715389    -0.75900
C383        C  0.75503188  0.51776767  0.67182311     0.84900
N384        N  0.72102461  0.51970432  0.65518229    -0.77600
C385        C  0.69841017  0.49627670  0.85055375     0.82400
N386        N  0.69788423  0.50291772  0.81017015    -0.75900
C387        C  0.73096114  0.50742206  0.78629193     0.84800
N388        N  0.76471862  0.50522543  0.80314583    -0.75900
C389        C  0.76542686  0.49871601  0.84353757     0.84900
N390        N  0.73221136  0.49415508  0.86725095    -0.77600
C391        C  0.46616995  0.19094349  0.85004750     0.82400
N392        N  0.46572638  0.22442593  0.87004501    -0.75900
C393        C  0.46366030  0.25563901  0.84881898     0.84800
N394        N  0.46226513  0.25340466  0.80755937    -0.75900
C395        C  0.46267812  0.21974960  0.78748533     0.84900
N396        N  0.46464847  0.18866096  0.80893495    -0.77600
C397        C  0.47177023  0.21414315  0.61345042     0.82400
N398        N  0.47416201  0.24777222  0.59252318    -0.75900
C399        C  0.47242385  0.28057113  0.61263804     0.84800
N400        N  0.46842004  0.27983349  0.65354026    -0.75900
C401        C  0.46608196  0.24646477  0.67468152     0.84900
N402        N  0.46782402  0.21355126  0.65452159    -0.77600
O403        O  0.52962027  0.62113494  0.56830477    -0.73100
O404        O  0.46860014  0.60997015  0.53443646    -0.52000
C405        C  0.50050396  0.63110717  0.55933020     0.80600
O406        O  0.58504449  0.51322492  0.90748530    -0.57700
O407        O  0.57752451  0.45519304  0.94266279    -0.50800
C408        C  0.59612838  0.48498801  0.91627969     0.72600
O409        O  0.51256959  0.58675776  0.90705408    -0.72300
O410        O  0.45553428  0.58115622  0.94377236    -0.52900
C411        C  0.48467768  0.59843126  0.91630035     0.78600
O412        O  0.60088124  0.54559178  0.57125503    -0.57400
O413        O  0.59385482  0.48807242  0.53286694    -0.50600
C414        C  0.61242843  0.51782661  0.56060661     0.75200
Zr415      Zr  0.54526439  0.56316790  0.55117288     2.54700
O416        O  0.61435431  0.63089851  0.55470066    -0.78000
O417        O  0.53991073  0.56016484  0.62487788    -0.91400
Zr418      Zr  0.53092070  0.53256779  0.92881612     2.64700
O419        O  0.59885186  0.60146192  0.93255174    -0.96400
O420        O  0.52946998  0.53035173  0.85492502    -0.78400
O421        O  0.51154987  0.55565504  0.98952626    -0.81800
O422        O  0.55271221  0.51271618  0.98884350    -2.16500
O423        O  0.45275749  0.39592785  0.56609133    -0.65200
O424        O  0.51157435  0.40474794  0.53020942    -0.49700
C425        C  0.48112727  0.38515391  0.55597004     0.73600
O426        O  0.36449492  0.44039849  0.90626133    -0.58100
O427        O  0.37341539  0.49987024  0.94260828    -0.50100
C428        C  0.35446674  0.46963262  0.91531057     0.75400
O429        O  0.43737409  0.36723207  0.90366050    -0.69500
O430        O  0.49573812  0.37481827  0.93986837    -0.48200
C431        C  0.46599482  0.35649840  0.91229474     0.76800
O432        O  0.37628134  0.46650744  0.56682541    -0.64800
O433        O  0.38461789  0.52535512  0.53256731    -0.52000
C434        C  0.36492547  0.49449931  0.55763890     0.75200
Zr435      Zr  0.43411534  0.45110128  0.54830910     2.77500
O436        O  0.36607645  0.38221997  0.54700693    -0.95600
O437        O  0.43760341  0.45525253  0.62219353    -0.76400
Zr438      Zr  0.41849449  0.42121343  0.92729582     2.70100
O439        O  0.35055434  0.35270931  0.93198718    -0.77600
O440        O  0.41599825  0.42089778  0.85338009    -0.96700
Zr441      Zr  0.43428994  0.52035985  0.98867386     2.21500
Zr442      Zr  0.51632669  0.43534956  0.98728579     2.11100
O443        O  0.43889156  0.39955585  0.98710030    -2.45400
O444        O  0.39741924  0.44293593  0.98768777    -0.77400
O445        O  0.51118742  0.48630421  0.54974442    -0.69600
O446        O  0.45419686  0.49810381  0.92754990    -2.30600
O447        O  0.46820645  0.52789745  0.55131359    -2.26800
O448        O  0.49543614  0.45558992  0.92658178    -0.71400
H449        H  0.58385255  0.52502892  0.98887451     0.80600
H450        H  0.44496818  0.50719691  0.90395170     0.81700
H451        H  0.42638348  0.36838174  0.98655886     0.83900
H452        H  0.45846147  0.53721326  0.57480986     0.81500
H453        H  0.50095738  0.50488512  0.84755083     0.44600
H454        H  0.44424007  0.42441906  0.84478911     0.43500
H455        H  0.33478874  0.35766860  0.95432137     0.43200
H456        H  0.37166493  0.36261790  0.52949188     0.41200
H457        H  0.46878388  0.46750557  0.62889081     0.44300
H458        H  0.51299591  0.56080903  0.63106873     0.39100
H459        H  0.61882561  0.64192508  0.52673710     0.45200
H460        H  0.61937023  0.59508412  0.94700704     0.41600
H461        H  0.36360087  0.37098871  0.57471837     0.46500
H462        H  0.56364239  0.58881738  0.63464988     0.45200
H463        H  0.60925109  0.60661090  0.90422193     0.45400
H464        H  0.39442995  0.39060005  0.84539490     0.45700
O465        O  0.05061964  0.59037583  0.88966824    -0.73100
O466        O  0.10086738  0.58091715  0.92434509    -0.52000
C467        C  0.08982709  0.60114369  0.89948676     0.80600
O468        O  0.91397085  0.54229345  0.54705083    -0.57700
O469        O  0.86346223  0.48406923  0.50935296    -0.50800
C470        C  0.87467543  0.51367121  0.53728945     0.72600
O471        O  0.06015926  0.61752998  0.54814164    -0.72300
O472        O  0.11115248  0.61068902  0.51164758    -0.52900
C473        C  0.09960716  0.62873698  0.53935833     0.78600
O474        O  0.90392553  0.51689899  0.88567597    -0.57400
O475        O  0.85339706  0.45822476  0.92010753    -0.50600
C476        C  0.86459226  0.48894242  0.89481560     0.75200
Zr477      Zr  0.97708305  0.53287161  0.90484351     2.54700
O478        O  0.97735450  0.60126278  0.90157516    -0.78000
O479        O  0.97827116  0.52748058  0.83103722    -0.91400
Zr480      Zr  0.98723367  0.56307052  0.52480442     2.64700
O481        O  0.98662065  0.63085359  0.51840227    -0.96400
O482        O  0.98807821  0.56783766  0.59865602    -0.78400
O483        O  0.01869671  0.55452885  0.96604000    -0.81800
O484        O  0.93547359  0.51396027  0.96506743    -2.16500
O485        O  0.90295393  0.36524544  0.88315419    -0.65200
O486        O  0.85305837  0.37436930  0.91926460    -0.49700
C487        C  0.86385422  0.35445735  0.89299231     0.73600
O488        O  0.06256064  0.47107749  0.54472937    -0.58100
O489        O  0.11259766  0.53010863  0.51032481    -0.50100
C490        C  0.10175349  0.50011406  0.53641178     0.75400
O491        O  0.91635401  0.39821828  0.54650903    -0.69500
O492        O  0.86474732  0.40350106  0.50972264    -0.48200
C493        C  0.87674142  0.38639835  0.53727643     0.76800
O494        O  0.05023194  0.43869896  0.88418490    -0.64800
O495        O  0.10043712  0.49714789  0.92185039    -0.52000
C496        C  0.08946694  0.46696824  0.89467259     0.76400
Zr497      Zr  0.97669345  0.42116982  0.90306754     2.77500
O498        O  0.97717347  0.35294551  0.90271192    -0.95600
O499        O  0.97622723  0.42233399  0.82916899    -0.76400
Zr500      Zr  0.98887093  0.45181550  0.52411890     2.70100
O501        O  0.98765359  0.38281363  0.52001302    -0.77600
O502        O  0.99274203  0.45511845  0.59798580    -0.96700
Zr503      Zr  0.05968685  0.51833403  0.96598316     2.21500
Zr504      Zr  0.89398137  0.43675683  0.96364088     2.11100
O505        O  0.93489035  0.40028075  0.96301935    -2.45400
O506        O  0.01850069  0.44112122  0.96418735    -0.77400
O507        O  0.93442002  0.45600562  0.90236931    -0.69600
O508        O  0.02961733  0.52868188  0.52585051    -2.30600
O509        O  0.01914991  0.49802164  0.90375431    -2.26800
O510        O  0.94614788  0.48598159  0.52520715    -0.71400
H511        H  0.91685760  0.52651040  0.96537806     0.80600
H512        H  0.04818611  0.53834740  0.54970535     0.81700
H513        H  0.91607763  0.36915024  0.96250214     0.83900
H514        H  0.03822812  0.50743753  0.88070664     0.81500
H515        H  0.97924462  0.53809367  0.60732800     0.44600
H516        H  0.96708394  0.45707474  0.60657296     0.43500
H517        H  0.00253254  0.38388405  0.49430054     0.43200
H518        H  0.95204757  0.33333361  0.91940313     0.41200
H519        H  0.95626563  0.43319223  0.82239437     0.44300
H520        H  0.00613311  0.52879050  0.82482493     0.39100
H521        H  0.98205154  0.61223964  0.93006667     0.45200
H522        H  0.95751103  0.62226704  0.50717779     0.41600
H523        H  0.96862126  0.34118646  0.87460640     0.46500
H524        H  0.98220991  0.55550771  0.82173562     0.45200
H525        H  0.98602995  0.64036116  0.54675111     0.45400
H526        H  0.98611368  0.42570984  0.60577298     0.45700
O527        O  0.51684814  0.90408789  0.89938054    -0.73100
O528        O  0.45551933  0.85519082  0.93208725    -0.52000
C529        C  0.48749663  0.86528909  0.90822278     0.80600
O530        O  0.60165806  0.07993254  0.55574933    -0.57700
O531        O  0.59046557  0.12909664  0.52197776    -0.50800
C532        C  0.61148105  0.11883153  0.54678907     0.72600
O533        O  0.52637951  0.93353457  0.55980966    -0.72300
O534        O  0.46899015  0.88188550  0.52223026    -0.52900
C535        C  0.49806818  0.89391869  0.55047279     0.78600
O536        O  0.58614182  0.05063138  0.89214586    -0.57400
O537        O  0.58186270  0.10242782  0.93079431    -0.50600
C538        C  0.59809156  0.09030082  0.90196594     0.75200
Zr539      Zr  0.53336780  0.97821919  0.91535523     2.54700
O540        O  0.60335857  0.98135493  0.91609724    -0.78000
O541        O  0.52810525  0.97256270  0.84148508    -0.91400
Zr542      Zr  0.54533799  0.00588354  0.53707378     2.64700
O543        O  0.61196112  0.00238748  0.53420581    -0.96400
O544        O  0.54726904  0.01084251  0.61093716    -0.78400
O545        O  0.51167514  0.93654829  0.97492558    -0.81800
O546        O  0.55721891  0.02054002  0.97651888    -2.16500
O547        O  0.44406836  0.05615327  0.89791800    -0.65200
O548        O  0.50347304  0.10555798  0.93491334    -0.49700
C549        C  0.47316437  0.09511973  0.90840679     0.73600
O550        O  0.37649914  0.93053786  0.55445201    -0.58100
O551        O  0.38590114  0.88049738  0.51795693    -0.50100
C552        C  0.36600676  0.89140478  0.54401774     0.75400
O553        O  0.45018810  0.07707183  0.56032332    -0.69500
O554        O  0.50761961  0.12780688  0.52459350    -0.48200
C555        C  0.47804691  0.11649286  0.55161832     0.76800
O556        O  0.36662597  0.90927446  0.89307978    -0.64800
O557        O  0.37292645  0.85784557  0.92805558    -0.52000
C558        C  0.35464323  0.86967065  0.90147167     0.75200
Zr559      Zr  0.42340275  0.98188540  0.91559697     2.77500
O560        O  0.35540593  0.98283972  0.91705642    -0.95600
O561        O  0.42561818  0.98271031  0.84172303    -0.76400
Zr562      Zr  0.43242930  0.00399199  0.53745744     2.70100
O563        O  0.36423246  0.00444236  0.53572269    -0.77600
O564        O  0.43354526  0.00173916  0.61128227    -0.96700
Zr565      Zr  0.43432638  0.89738079  0.97438362     2.21500
Zr566      Zr  0.52279090  0.06330800  0.97761047     2.11100
O567        O  0.44527856  0.02401588  0.97688884    -2.45400
O568        O  0.40021259  0.94027359  0.97529818    -0.77400
O569        O  0.50046986  0.02198609  0.91562016    -0.69600
O570        O  0.46852007  0.96313716  0.53747572    -2.30600
O571        O  0.45624657  0.93798946  0.91372124    -2.26800
O572        O  0.50930094  0.04699576  0.53902192    -0.71400
H573        H  0.58844623  0.03872934  0.97663130     0.80600
H574        H  0.45923833  0.94472089  0.56080813     0.81700
H575        H  0.43378516  0.04353081  0.97738933     0.83900
H576        H  0.44636563  0.91893440  0.89000966     0.81500
H577        H  0.51667112  0.99221225  0.61900239     0.44600
H578        H  0.46320505  0.02472931  0.61938421     0.43500
H579        H  0.34875249  0.98657624  0.51133276     0.43200
H580        H  0.36101127  0.00713817  0.93597347     0.41200
H581        H  0.45695110  0.99776349  0.83535778     0.44300
H582        H  0.50042185  0.94553423  0.83531303     0.39100
H583        H  0.60098391  0.96160500  0.93795072     0.45200
H584        H  0.62997350  0.02401315  0.51386447     0.41600
H585        H  0.35309286  0.99308440  0.88993966     0.46500
H586        H  0.55087552  0.96579193  0.83321154     0.45200
H587        H  0.62685377  0.01523595  0.56050541     0.45400
H588        H  0.41452742  0.01315052  0.62032457     0.45700
C589        C  0.47825007  0.34785303  0.57477897    -0.11100
C590        C  0.47554741  0.31660633  0.59108551    -0.12700
C591        C  0.47388384  0.17946006  0.59212312    -0.11100
C592        C  0.47578305  0.15064205  0.57381024    -0.12700
C593        C  0.46258492  0.21694689  0.74272180    -0.14300
C594        C  0.46303577  0.24756528  0.71932313    -0.29400
H595        H  0.46345798  0.18945123  0.72876208     0.14800
H596        H  0.46237013  0.27515894  0.73331290     0.15300
C597        C  0.46386970  0.29138572  0.87016932    -0.11100
C598        C  0.46460939  0.32112715  0.88916821    -0.12700
C599        C  0.46904916  0.15822466  0.87208667    -0.11100
C600        C  0.47131309  0.12978866  0.88905647    -0.12700
C601        C  0.63240369  0.48734179  0.89473079    -0.11100
C602        C  0.66283393  0.49100237  0.87533054    -0.12700
C603        C  0.80089275  0.49573709  0.86096349    -0.11100
C604        C  0.83031041  0.49276288  0.87581103    -0.12700
C605        C  0.68054858  0.52137349  0.59675589    -0.11100
C606        C  0.64941050  0.52041756  0.58101571    -0.12700
C607        C  0.75892731  0.51509752  0.71623698    -0.14300
C608        C  0.72886446  0.51321356  0.74219625    -0.29400
H609        H  0.78666135  0.51332685  0.72765059     0.14800
H610        H  0.70097613  0.51465486  0.73071365     0.15300
C611        C  0.81325131  0.51621915  0.58038674    -0.11100
C612        C  0.84068955  0.51482217  0.55990176    -0.12700
C613        C  0.68127414  0.18387411  0.58087720    -0.11100
C614        C  0.64948516  0.15386646  0.56546413    -0.12700
C615        C  0.81606067  0.32140761  0.57897642    -0.11100
C616        C  0.84337398  0.35114420  0.55975033    -0.12700
C617        C  0.63220664  0.12374562  0.87860325    -0.11100
C618        C  0.66078370  0.15189352  0.85900949    -0.12700
C619        C  0.72489750  0.21859806  0.72976501    -0.14300
C620        C  0.75636666  0.25055556  0.70793174    -0.29400
H621        H  0.69682569  0.19197439  0.71450944     0.14800
H622        H  0.78432807  0.27729187  0.72319850     0.15300
C623        C  0.79888297  0.28581497  0.85725741    -0.11100
C624        C  0.82917554  0.31682891  0.87337080    -0.12700
C625        C  0.29168435  0.46865588  0.87161761    -0.11100
C626        C  0.31981929  0.46887106  0.89226000    -0.12700
C627        C  0.12410298  0.46502220  0.87432864    -0.11100
C628        C  0.15470053  0.46535123  0.85826972    -0.12700
C629        C  0.21207283  0.48202870  0.71239025    -0.14300
C630        C  0.23992368  0.47849399  0.73755666    -0.29400
H631        H  0.18347164  0.48163574  0.72450994     0.14800
H632        H  0.26866874  0.47919033  0.72543986     0.15300
C633        C  0.32717504  0.49128081  0.57682378    -0.11100
C634        C  0.29581681  0.49031511  0.59197533    -0.12700
C635        C  0.13605030  0.49904580  0.55858324    -0.11100
C636        C  0.16362983  0.49728439  0.57851031    -0.12700
C637        C  0.13348922  0.66390519  0.56289633    -0.11100
C638        C  0.16233385  0.69321979  0.58252733    -0.12700
C639        C  0.29899473  0.82817266  0.58059186    -0.11100
C640        C  0.32919411  0.85699632  0.56338922    -0.12700
C641        C  0.12403256  0.63877385  0.88085868    -0.11100
C642        C  0.15216977  0.66984593  0.86398631    -0.12700
C643        C  0.20782211  0.73592488  0.73419427    -0.14300
C644        C  0.23733248  0.76655512  0.71030841    -0.29400
H645        H  0.17959540  0.70796881  0.72056648     0.14800
H646        H  0.26560805  0.79443854  0.72396355     0.15300
C647        C  0.28714506  0.80714886  0.86083912    -0.11100
C648        C  0.31793028  0.83589850  0.87920039    -0.12700
C649        C  0.48730658  0.66216257  0.87375283    -0.11100
C650        C  0.48594770  0.63318339  0.89345623    -0.12700
C651        C  0.49154799  0.80014762  0.87363687    -0.11100
C652        C  0.49045292  0.83018391  0.88978647    -0.12700
C653        C  0.50407944  0.69953272  0.59539665    -0.11100
C654        C  0.50357609  0.66884306  0.57881919    -0.12700
C655        C  0.49858180  0.86056117  0.57416250    -0.11100
C656        C  0.49891222  0.83271381  0.59436133    -0.12700
C657        C  0.49563491  0.76489194  0.72353180    -0.14300
C658        C  0.49479247  0.73255531  0.74508993    -0.29400
H659        H  0.49461717  0.79159568  0.73907744     0.14800
H660        H  0.49550586  0.70570864  0.72951174     0.15300
loop_ 
_geom_bond_atom_site_label_1 
_geom_bond_atom_site_label_2 
_geom_bond_distance 
_geom_bond_site_symmetry_2 
_ccdc_geom_bond_type 
C1            N2   1.364       .  A
C1            N6   1.358       .  A
C1          C323   1.444       .  S
N2            C3   1.366       .  A
C3            N4   1.354       .  A
C3          C327   1.479       .  S
N4            C5   1.352       .  A
C5            N6   1.356       .  A
C5          C326   1.432       .  S
C7            N8   1.355       .  A
C7           N12   1.353       .  A
C7          C319   1.428       .  S
N8            C9   1.357       .  A
C9           N10   1.363       .  A
C9          C321   1.442       .  S
N10          C11   1.366       .  A
C11          N12   1.354       .  A
C11         C328   1.480       .  S
C13          N14   1.356       .  A
C13          N18   1.355       .  A
C13         C317   1.433       .  S
N14          C15   1.357       .  A
C15          N16   1.360       .  A
C15         C312   1.439       .  S
N16          C17   1.363       .  A
C17          N18   1.357       .  A
C17         C313   1.478       .  S
C19          N20   1.360       .  A
C19          N24   1.358       .  A
C19         C309   1.439       .  S
N20          C21   1.362       .  A
C21          N22   1.356       .  A
C21         C314   1.477       .  S
N22          C23   1.355       .  A
C23          N24   1.357       .  A
C23         C308   1.433       .  S
C25          N26   1.357       .  A
C25          N30   1.356       .  A
C25         C306   1.435       .  S
N26          C27   1.358       .  A
C27          N28   1.362       .  A
C27         C299   1.479       .  S
N28          C29   1.359       .  A
C29          N30   1.357       .  A
C29         C304   1.438       .  S
C31          N32   1.357       .  A
C31          N36   1.358       .  A
C31         C298   1.435       .  S
N32          C33   1.356       .  A
C33          N34   1.356       .  A
C33         C295   1.434       .  S
N34          C35   1.357       .  A
C35          N36   1.361       .  A
C35         C300   1.478       .  S
C37          N38   1.363       .  A
C37          N42   1.359       .  A
C37         C293   1.444       .  S
N38          C39   1.365       .  A
C39          N40   1.353       .  A
C39         C289   1.477       .  S
N40          C41   1.352       .  A
C41          N42   1.357       .  A
C41         C288   1.432       .  S
C43          N44   1.355       .  A
C43          N48   1.352       .  A
C43         C285   1.428       .  S
N44          C45   1.357       .  A
C45          N46   1.362       .  A
C45         C283   1.441       .  S
N46          C47   1.365       .  A
C47          N48   1.353       .  A
C47         C290   1.477       .  S
C49          N50   1.358       .  A
C49          N54   1.357       .  A
C49         C275   1.438       .  S
N50          C51   1.358       .  A
C51          N52   1.357       .  A
C51         C281   1.437       .  S
N52          C53   1.358       .  A
C53          N54   1.360       .  A
C53         C277   1.477       .  S
C55          N56   1.357       .  A
C55          N60   1.357       .  A
C55         C272   1.437       .  S
N56          C57   1.358       .  A
C57          N58   1.359       .  A
C57         C278   1.476       .  S
N58          C59   1.356       .  A
C59          N60   1.357       .  A
C59         C273   1.435       .  S
C61          N62   1.359       .  A
C61          N66   1.358       .  A
C61         C269   1.441       .  S
N62          C63   1.359       .  A
C63          N64   1.355       .  A
C63         C267   1.436       .  S
N64          C65   1.356       .  A
C65          N66   1.361       .  A
C65         C263   1.476       .  S
C67          N68   1.357       .  A
C67          N72   1.355       .  A
C67         C261   1.433       .  S
N68          C69   1.357       .  A
C69          N70   1.358       .  A
C69         C260   1.437       .  S
N70          C71   1.361       .  A
C71          N72   1.357       .  A
C71         C264   1.476       .  S
O73         Zr85   2.455       .  S
O73          C75   1.289       .  A
O74        Zr441   2.432   1_554  S
O74          C75   1.287       .  A
C75         C324   1.444       .  S
O76         Zr88   2.439       .  S
O76          C78   1.286       .  A
O77        Zr112   2.431       .  S
O77          C78   1.286       .  A
C78         C271   1.437       .  S
O79         Zr88   2.439       .  S
O79          C81   1.286       .  A
O80        Zr111   2.410       .  S
O80          C81   1.282       .  A
C81         C320   1.427       .  S
O82         Zr85   2.452       .  S
O82          C84   1.289       .  A
O83        Zr442   2.424   1_554  S
O83          C84   1.285       .  A
C84         C276   1.438       .  S
Zr85         O86   2.433       .  S
Zr85         O87   2.436       .  S
Zr85        O115   2.375       .  S
Zr85        O117   2.371       .  S
Zr85        O421   2.378   1_554  S
Zr85        O422   2.375   1_554  S
O86         H129   0.990       .  S
O87         H128   0.990       .  S
O87         H132   0.990       .  S
Zr88         O89   2.436       .  S
Zr88         O90   2.433       .  S
Zr88         O92   2.370       .  S
Zr88         O91   2.368       .  S
Zr88        O116   2.372       .  S
Zr88        O118   2.376       .  S
O89         H130   0.990       .  S
O89         H133   0.990       .  S
O90         H123   0.990       .  S
O91        Zr111   2.379       .  S
O91        Zr415   2.372       .  S
O92        Zr112   2.382       .  S
O92        Zr415   2.375       .  S
O92         H119   0.966       .  S
O93        Zr105   2.448       .  S
O93          C95   1.288       .  A
O94        Zr442   2.424   1_554  S
O94          C95   1.285       .  A
C95         C259   1.436       .  S
O96        Zr108   2.442       .  S
O96          C98   1.286       .  A
O97        Zr111   2.420       .  S
O97          C98   1.284       .  A
C98         C296   1.433       .  S
O99        Zr108   2.448       .  S
O99         C101   1.288       .  A
O100       Zr112   2.421       .  S
O100        C101   1.284       .  A
C101        C268   1.436       .  S
O102       Zr105   2.448       .  S
O102        C104   1.288       .  A
O103       Zr441   2.426   1_554  S
O103        C104   1.286       .  A
C104        C303   1.438       .  S
Zr105       O106   2.436       .  S
Zr105       O107   2.434       .  S
Zr105       O117   2.372       .  S
Zr105       O115   2.376       .  S
Zr105       O443   2.376   1_554  S
Zr105       O444   2.375   1_554  S
O106        H126   0.990       .  S
O106        H131   0.990       .  S
O107        H127   0.990       .  S
Zr108       O109   2.433       .  S
Zr108       O110   2.434       .  S
Zr108       O114   2.373       .  S
Zr108       O113   2.367       .  S
Zr108       O118   2.375       .  S
Zr108       O116   2.371       .  S
O109        H125   0.990       .  S
O110        H124   0.990       .  S
O110        H134   0.990       .  S
Zr111       O404   2.411       .  S
Zr111       O433   2.417       .  S
Zr111       O114   2.375       .  S
Zr111       O116   2.381       .  S
Zr111       O447   2.382       .  S
Zr112       O413   2.423       .  S
Zr112       O424   2.419       .  S
Zr112       O113   2.384       .  S
Zr112       O118   2.380       .  S
Zr112       O445   2.384       .  S
O113       Zr435   2.373       .  S
O113        H121   0.966       .  S
O114       Zr435   2.372       .  S
O115       Zr442   2.385   1_554  S
O116        H120   0.966       .  S
O117       Zr441   2.385   1_554  S
O117        H122   0.966       .  S
O135       Zr147   2.449   1_455  S
O135        C137   1.288       .  A
O136       Zr173   2.427       .  S
O136        C137   1.286       .  A
C137        C311   1.439       .  S
O138       Zr150   2.443       .  S
O138        C140   1.286       .  A
O139       Zr504   2.426   1_554  S
O139        C140   1.285       .  A
C140        C282   1.437       .  S
O141       Zr150   2.442   1_455  S
O141        C143   1.287       .  A
O142       Zr503   2.417   1_554  S
O142        C143   1.284       .  A
C143        C307   1.433       .  S
O144       Zr147   2.447       .  S
O144        C146   1.288       .  A
O145       Zr174   2.420       .  S
O145        C146   1.285       .  A
C146        C274   1.434       .  S
Zr147       O148   2.434       .  S
Zr147       O149   2.436       .  S
Zr147       O153   2.377   1_655  S
Zr147       O154   2.375       .  S
Zr147       O177   2.376       .  S
Zr147       O179   2.373   1_655  S
O148        H191   0.990       .  S
O149        H190   0.990   1_655  S
O149        H194   0.990       .  S
Zr150       O151   2.435       .  S
Zr150       O152   2.435       .  S
Zr150       O178   2.370   1_655  S
Zr150       O180   2.373       .  S
Zr150       O484   2.371   1_554  S
Zr150       O483   2.371   1_654  S
O151        H192   0.990       .  S
O151        H195   0.990       .  S
O152        H185   0.990       .  S
O153       Zr173   2.382       .  S
O153       Zr480   2.374   1_455  S
O154       Zr174   2.389       .  S
O154       Zr480   2.368       .  S
O154        H181   0.966       .  S
O155       Zr167   2.450       .  S
O155        C157   1.288       .  A
O156       Zr174   2.435       .  S
O156        C157   1.287       .  A
C157        C294   1.444       .  S
O158       Zr170   2.438   1_455  S
O158        C160   1.286       .  A
O159       Zr503   2.427   1_554  S
O159        C160   1.285       .  A
C160        C305   1.435       .  S
O161       Zr170   2.439       .  S
O161        C163   1.286       .  A
O162       Zr504   2.415   1_554  S
O162        C163   1.283       .  A
C163        C286   1.428       .  S
O164       Zr167   2.448   1_455  S
O164        C166   1.288       .  A
O165       Zr173   2.417       .  S
O165        C166   1.284       .  A
C166        C297   1.434       .  S
Zr167       O168   2.435       .  S
Zr167       O169   2.435       .  S
Zr167       O175   2.374       .  S
Zr167       O176   2.375   1_655  S
Zr167       O179   2.373   1_655  S
Zr167       O177   2.374       .  S
O168        H188   0.990       .  S
O168        H193   0.990       .  S
O169        H189   0.990       .  S
Zr170       O171   2.433       .  S
Zr170       O172   2.435       .  S
Zr170       O180   2.374       .  S
Zr170       O178   2.371   1_655  S
Zr170       O506   2.374   1_654  S
Zr170       O505   2.367   1_554  S
O171        H187   0.990   1_554  S
O172        H186   0.990       .  S
O172        H196   0.990       .  S
Zr173       O472   2.427       .  S
Zr173       O489   2.427       .  S
Zr173       O176   2.383       .  S
Zr173       O179   2.387       .  S
Zr173       O508   2.382       .  S
Zr174       O469   2.429       .  S
Zr174       O492   2.436       .  S
Zr174       O175   2.383       .  S
Zr174       O177   2.385       .  S
Zr174       O510   2.381       .  S
O175       Zr500   2.372       .  S
O175        H183   0.966       .  S
O176       Zr500   2.371   1_455  S
O178       Zr503   2.381   1_554  S
O178        H182   0.966       .  S
O179        H184   0.966       .  S
O180       Zr504   2.379   1_554  S
O197       Zr209   2.454   1_565  S
O197        C199   1.288       .  A
O198       Zr235   2.429       .  S
O198        C199   1.286       .  A
C199        C322   1.442       .  S
O200       Zr212   2.449   1_545  S
O200        C202   1.288       .  A
O201       Zr566   2.428   1_554  S
O201        C202   1.286       .  A
C202        C284   1.441       .  S
O203       Zr212   2.445       .  S
O203        C205   1.287       .  A
O204       Zr565   2.417   1_554  S
O204        C205   1.283       .  A
C205        C325   1.432       .  S
O206       Zr209   2.449       .  S
O206        C208   1.288       .  A
O207       Zr236   2.415       .  S
O207        C208   1.283       .  A
C208        C287   1.432       .  S
Zr209       O210   2.435       .  S
Zr209       O211   2.436       .  S
Zr209       O215   2.379   1_545  S
Zr209       O216   2.369       .  S
Zr209       O239   2.378       .  S
Zr209       O241   2.370   1_545  S
O210        H253   0.990   1_545  S
O211        H252   0.990   1_545  S
O211        H256   0.990   1_545  S
Zr212       O213   2.436       .  S
Zr212       O214   2.434       .  S
Zr212       O240   2.376       .  S
Zr212       O242   2.374   1_565  S
Zr212       O546   2.377   1_564  S
Zr212       O545   2.369   1_554  S
O213        H254   0.990   1_565  S
O213        H257   0.990       .  S
O214        H247   0.990       .  S
O215       Zr235   2.381       .  S
O215       Zr542   2.377   1_565  S
O216       Zr236   2.388       .  S
O216       Zr542   2.370       .  S
O216        H243   0.966       .  S
O217       Zr229   2.451       .  S
O217        C219   1.288       .  A
O218       Zr236   2.425       .  S
O218        C219   1.285       .  A
C219        C270   1.440       .  S
O220       Zr232   2.448       .  S
O220        C222   1.287       .  A
O221       Zr565   2.426   1_554  S
O221        C222   1.285       .  A
C222        C310   1.439       .  S
O223       Zr232   2.443   1_545  S
O223        C225   1.286       .  A
O224       Zr566   2.420   1_554  S
O224        C225   1.284       .  A
C225        C262   1.433       .  S
O226       Zr229   2.441   1_565  S
O226        C228   1.286       .  A
O227       Zr235   2.421       .  S
O227        C228   1.284       .  A
C228        C318   1.432       .  S
Zr229       O230   2.435       .  S
Zr229       O231   2.434       .  S
Zr229       O237   2.373       .  S
Zr229       O238   2.373   1_545  S
Zr229       O241   2.372   1_545  S
Zr229       O239   2.371       .  S
O230        H250   0.990       .  S
O230        H255   0.990       .  S
O231        H251   0.990       .  S
Zr232       O233   2.434       .  S
Zr232       O234   2.436       .  S
Zr232       O242   2.376   1_565  S
Zr232       O240   2.371       .  S
Zr232       O568   2.375   1_554  S
Zr232       O567   2.370   1_564  S
O233        H249   0.990       .  S
O234        H248   0.990   1_565  S
O234        H258   0.990       .  S
Zr235       O534   2.435       .  S
Zr235       O551   2.419       .  S
Zr235       O238   2.383       .  S
Zr235       O241   2.385       .  S
Zr235       O570   2.383       .  S
Zr236       O531   2.410       .  S
Zr236       O554   2.429       .  S
Zr236       O237   2.379       .  S
Zr236       O239   2.382       .  S
Zr236       O572   2.381       .  S
O237       Zr562   2.370       .  S
O237        H245   0.966       .  S
O238       Zr562   2.374   1_565  S
O240       Zr565   2.384   1_554  S
O240        H244   0.966       .  S
O241        H246   0.966       .  S
O242       Zr566   2.382   1_554  S
C259        C260   1.207       .  T
C261        C262   1.205       .  T
C263        C264   1.342       .  D
C263        H265   1.087       .  S
C264        H266   1.086       .  S
C267        C268   1.206       .  T
C269        C270   1.209       .  T
C271        C272   1.207       .  T
C273        C274   1.205       .  T
C275        C276   1.207       .  T
C277        C278   1.345       .  D
C277        H279   1.087       .  S
C278        H280   1.086       .  S
C281        C282   1.207       .  T
C283        C284   1.209       .  T
C285        C286   1.202       .  T
C287        C288   1.204       .  T
C289        C290   1.338       .  D
C289        H291   1.087       .  S
C290        H292   1.087       .  S
C293        C294   1.211       .  T
C295        C296   1.205       .  T
C297        C298   1.205       .  T
C299        C300   1.344       .  D
C299        H301   1.087       .  S
C300        H302   1.086       .  S
C303        C304   1.207       .  T
C305        C306   1.206       .  T
C307        C308   1.204       .  T
C309        C310   1.208       .  T
C311        C312   1.208       .  T
C313        C314   1.342       .  D
C313        H315   1.087       .  S
C314        H316   1.087       .  S
C317        C318   1.204       .  T
C319        C320   1.201       .  T
C321        C322   1.210       .  T
C323        C324   1.211       .  T
C325        C326   1.204       .  T
C327        C328   1.339       .  D
C327        H329   1.087       .  S
C328        H330   1.087       .  S
C331        N332   1.353       .  A
C331        N336   1.356       .  A
C331        C653   1.430       .  S
N332        C333   1.356       .  A
C333        N334   1.363       .  A
C333        C657   1.479       .  S
N334        C335   1.362       .  A
C335        N336   1.357       .  A
C335        C656   1.442       .  S
C337        N338   1.357       .  A
C337        N342   1.362       .  A
C337        C649   1.443       .  S
N338        C339   1.356       .  A
C339        N340   1.352       .  A
C339        C651   1.428       .  S
N340        C341   1.356       .  A
C341        N342   1.363       .  A
C341        C658   1.479       .  S
C343        N344   1.358       .  A
C343        N348   1.360       .  A
C343        C647   1.442       .  S
N344        C345   1.357       .  A
C345        N346   1.355       .  A
C345        C642   1.434       .  S
N346        C347   1.356       .  A
C347        N348   1.363       .  A
C347        C643   1.479       .  S
C349        N350   1.354       .  A
C349        N354   1.356       .  A
C349        C639   1.432       .  S
N350        C351   1.356       .  A
C351        N352   1.364       .  A
C351        C644   1.479       .  S
N352        C353   1.361       .  A
C353        N354   1.357       .  A
C353        C638   1.439       .  S
C355        N356   1.358       .  A
C355        N360   1.358       .  A
C355        C636   1.439       .  S
N356        C357   1.359       .  A
C357        N358   1.360       .  A
C357        C629   1.478       .  S
N358        C359   1.356       .  A
C359        N360   1.358       .  A
C359        C634   1.437       .  S
C361        N362   1.356       .  A
C361        N366   1.357       .  A
C361        C628   1.434       .  S
N362        C363   1.356       .  A
C363        N364   1.358       .  A
C363        C625   1.436       .  S
N364        C365   1.359       .  A
C365        N366   1.360       .  A
C365        C630   1.477       .  S
C367        N368   1.352       .  A
C367        N372   1.357       .  A
C367        C623   1.429       .  S
N368        C369   1.356       .  A
C369        N370   1.362       .  A
C369        C619   1.477       .  S
N370        C371   1.361       .  A
C371        N372   1.358       .  A
C371        C618   1.441       .  S
C373        N374   1.358       .  A
C373        N378   1.362       .  A
C373        C615   1.443       .  S
N374        C375   1.357       .  A
C375        N376   1.352       .  A
C375        C613   1.429       .  S
N376        C377   1.355       .  A
C377        N378   1.362       .  A
C377        C620   1.477       .  S
C379        N380   1.358       .  A
C379        N384   1.357       .  A
C379        C605   1.437       .  S
N380        C381   1.357       .  A
C381        N382   1.358       .  A
C381        C611   1.438       .  S
N382        C383   1.359       .  A
C383        N384   1.361       .  A
C383        C607   1.479       .  S
C385        N386   1.357       .  A
C385        N390   1.358       .  A
C385        C602   1.439       .  S
N386        C387   1.358       .  A
C387        N388   1.360       .  A
C387        C608   1.478       .  S
N388        C389   1.357       .  A
C389        N390   1.359       .  A
C389        C603   1.437       .  S
C391        N392   1.356       .  A
C391        N396   1.354       .  A
C391        C599   1.430       .  S
N392        C393   1.357       .  A
C393        N394   1.359       .  A
C393        C597   1.437       .  S
N394        C395   1.362       .  A
C395        N396   1.355       .  A
C395        C593   1.475       .  S
C397        N398   1.359       .  A
C397        N402   1.359       .  A
C397        C591   1.441       .  S
N398        C399   1.358       .  A
C399        N400   1.354       .  A
C399        C590   1.433       .  S
N400        C401   1.355       .  A
C401        N402   1.362       .  A
C401        C594   1.475       .  S
O403       Zr415   2.445       .  S
O403        C405   1.287       .  A
O404        C405   1.282       .  A
C405        C654   1.429       .  S
O406       Zr418   2.445       .  S
O406        C408   1.287       .  A
O407       Zr442   2.430       .  S
O407        C408   1.286       .  A
C408        C601   1.439       .  S
O409       Zr418   2.443       .  S
O409        C411   1.287       .  A
O410       Zr441   2.436       .  S
O410        C411   1.287       .  A
C411        C650   1.442       .  S
O412       Zr415   2.448       .  S
O412        C414   1.288       .  A
O413        C414   1.285       .  A
C414        C606   1.437       .  S
Zr415       O416   2.434       .  S
Zr415       O417   2.435       .  S
Zr415       O445   2.372       .  S
Zr415       O447   2.376       .  S
O416        H459   0.990       .  S
O417        H458   0.990       .  S
O417        H462   0.990       .  S
Zr418       O419   2.434       .  S
Zr418       O420   2.433       .  S
Zr418       O422   2.369       .  S
Zr418       O421   2.376       .  S
Zr418       O446   2.367       .  S
Zr418       O448   2.373       .  S
O419        H460   0.990       .  S
O419        H463   0.990       .  S
O420        H453   0.990       .  S
O421       Zr441   2.382       .  S
O422       Zr442   2.384       .  S
O422        H449   0.966       .  S
O423       Zr435   2.446       .  S
O423        C425   1.287       .  A
O424        C425   1.284       .  A
C425        C589   1.433       .  S
O426       Zr438   2.441       .  S
O426        C428   1.287       .  A
O427       Zr441   2.427       .  S
O427        C428   1.286       .  A
C428        C626   1.435       .  S
O429       Zr438   2.444       .  S
O429        C431   1.286       .  A
O430       Zr442   2.428       .  S
O430        C431   1.286       .  A
C431        C598   1.437       .  S
O432       Zr435   2.453       .  S
O432        C434   1.289       .  A
O433        C434   1.283       .  A
C434        C633   1.437       .  S
Zr435       O436   2.434       .  S
Zr435       O437   2.434       .  S
Zr435       O447   2.370       .  S
Zr435       O445   2.376       .  S
O436        H456   0.990       .  S
O436        H461   0.990       .  S
O437        H457   0.990       .  S
Zr438       O439   2.435       .  S
Zr438       O440   2.435       .  S
Zr438       O444   2.373       .  S
Zr438       O443   2.370       .  S
Zr438       O448   2.374       .  S
Zr438       O446   2.371       .  S
O439        H455   0.990       .  S
O440        H454   0.990       .  S
O440        H464   0.990       .  S
Zr441       O444   2.386       .  S
Zr441       O446   2.382       .  S
Zr442       O443   2.387       .  S
Zr442       O448   2.379       .  S
O443        H451   0.966       .  S
O446        H450   0.966       .  S
O447        H452   0.966       .  S
O465       Zr477   2.443   1_455  S
O465        C467   1.287       .  A
O466       Zr503   2.419       .  S
O466        C467   1.284       .  A
C467        C641   1.433       .  S
O468       Zr480   2.443       .  S
O468        C470   1.287       .  A
O469        C470   1.286       .  A
C470        C612   1.437       .  S
O471       Zr480   2.445   1_455  S
O471        C473   1.287       .  A
O472        C473   1.286       .  A
C473        C637   1.438       .  S
O474       Zr477   2.448       .  S
O474        C476   1.288       .  A
O475       Zr504   2.422       .  S
O475        C476   1.284       .  A
C476        C604   1.437       .  S
Zr477       O478   2.433       .  S
Zr477       O479   2.436       .  S
Zr477       O483   2.374   1_655  S
Zr477       O484   2.375       .  S
Zr477       O507   2.372       .  S
Zr477       O509   2.372   1_655  S
O478        H521   0.990       .  S
O479        H520   0.990   1_655  S
O479        H524   0.990       .  S
Zr480       O481   2.436       .  S
Zr480       O482   2.434       .  S
Zr480       O508   2.369   1_655  S
Zr480       O510   2.377       .  S
O481        H522   0.990       .  S
O481        H525   0.990       .  S
O482        H515   0.990       .  S
O483       Zr503   2.379       .  S
O484       Zr504   2.380       .  S
O484        H511   0.966       .  S
O485       Zr497   2.447       .  S
O485        C487   1.287       .  A
O486       Zr504   2.411       .  S
O486        C487   1.282       .  A
C487        C624   1.429       .  S
O488       Zr500   2.445   1_455  S
O488        C490   1.287       .  A
O489        C490   1.285       .  A
C490        C635   1.438       .  S
O491       Zr500   2.444       .  S
O491        C493   1.287       .  A
O492        C493   1.287       .  A
C493        C616   1.442       .  S
O494       Zr497   2.450   1_455  S
O494        C496   1.288       .  A
O495       Zr503   2.414       .  S
O495        C496   1.283       .  A
C496        C627   1.433       .  S
Zr497       O498   2.435       .  S
Zr497       O499   2.435       .  S
Zr497       O505   2.371       .  S
Zr497       O506   2.376   1_655  S
Zr497       O509   2.371   1_655  S
Zr497       O507   2.379       .  S
O498        H518   0.990       .  S
O498        H523   0.990       .  S
O499        H519   0.990       .  S
Zr500       O501   2.434       .  S
Zr500       O502   2.433       .  S
Zr500       O510   2.373       .  S
Zr500       O508   2.369   1_655  S
O501        H517   0.990   1_655  S
O502        H516   0.990       .  S
O502        H526   0.990       .  S
Zr503       O506   2.380       .  S
Zr503       O509   2.386       .  S
Zr504       O505   2.385       .  S
Zr504       O507   2.384       .  S
O505        H513   0.966       .  S
O508        H512   0.966       .  S
O509        H514   0.966       .  S
O527       Zr539   2.443       .  S
O527        C529   1.287       .  A
O528       Zr565   2.409       .  S
O528        C529   1.282       .  A
C529        C652   1.428       .  S
O530       Zr542   2.446       .  S
O530        C532   1.287       .  A
O531        C532   1.282       .  A
C532        C614   1.428       .  S
O533       Zr542   2.446   1_565  S
O533        C535   1.287       .  A
O534        C535   1.287       .  A
C535        C655   1.441       .  S
O536       Zr539   2.448   1_545  S
O536        C538   1.288       .  A
O537       Zr566   2.428       .  S
O537        C538   1.286       .  A
C538        C617   1.441       .  S
Zr539       O540   2.435       .  S
Zr539       O541   2.436       .  S
Zr539       O545   2.371       .  S
Zr539       O546   2.374   1_565  S
Zr539       O569   2.369   1_565  S
Zr539       O571   2.376       .  S
O540        H583   0.990       .  S
O541        H582   0.990       .  S
O541        H586   0.990       .  S
Zr542       O543   2.435       .  S
Zr542       O544   2.434       .  S
Zr542       O570   2.371   1_545  S
Zr542       O572   2.378       .  S
O543        H584   0.990       .  S
O543        H587   0.990       .  S
O544        H577   0.990   1_545  S
O545       Zr565   2.382       .  S
O546       Zr566   2.382       .  S
O546        H573   0.966       .  S
O547       Zr559   2.446   1_545  S
O547        C549   1.287       .  A
O548       Zr566   2.414       .  S
O548        C549   1.283       .  A
C549        C600   1.430       .  S
O550       Zr562   2.442   1_565  S
O550        C552   1.287       .  A
O551        C552   1.284       .  A
C552        C640   1.432       .  S
O553       Zr562   2.450       .  S
O553        C555   1.288       .  A
O554        C555   1.286       .  A
C555        C592   1.441       .  S
O556       Zr559   2.450       .  S
O556        C558   1.288       .  A
O557       Zr565   2.431       .  S
O557        C558   1.286       .  A
C558        C648   1.442       .  S
Zr559       O560   2.435       .  S
Zr559       O561   2.434       .  S
Zr559       O567   2.373   1_565  S
Zr559       O568   2.375       .  S
Zr559       O571   2.372       .  S
Zr559       O569   2.374   1_565  S
O560        H580   0.990   1_565  S
O560        H585   0.990       .  S
O561        H581   0.990       .  S
Zr562       O563   2.434       .  S
Zr562       O564   2.435       .  S
Zr562       O572   2.373       .  S
Zr562       O570   2.371   1_545  S
O563        H579   0.990   1_545  S
O564        H578   0.990       .  S
O564        H588   0.990       .  S
Zr565       O568   2.377       .  S
Zr565       O571   2.384       .  S
Zr566       O567   2.387       .  S
Zr566       O569   2.380       .  S
O567        H575   0.966       .  S
O570        H574   0.966       .  S
O571        H576   0.965       .  S
C589        C590   1.205       .  T
C591        C592   1.209       .  T
C593        C594   1.341       .  D
C593        H595   1.087       .  S
C594        H596   1.087       .  S
C597        C598   1.207       .  T
C599        C600   1.203       .  T
C601        C602   1.208       .  T
C603        C604   1.207       .  T
C605        C606   1.207       .  T
C607        C608   1.345       .  D
C607        H609   1.086       .  S
C608        H610   1.086       .  S
C611        C612   1.207       .  T
C613        C614   1.202       .  T
C615        C616   1.210       .  T
C617        C618   1.209       .  T
C619        C620   1.351       .  D
C619        H621   1.086       .  S
C620        H622   1.086       .  S
C623        C624   1.202       .  T
C625        C626   1.206       .  T
C627        C628   1.205       .  T
C629        C630   1.346       .  D
C629        H631   1.086       .  S
C630        H632   1.086       .  S
C633        C634   1.207       .  T
C635        C636   1.208       .  T
C637        C638   1.208       .  T
C639        C640   1.204       .  T
C641        C642   1.205       .  T
C643        C644   1.342       .  D
C643        H645   1.087       .  S
C644        H646   1.087       .  S
C647        C648   1.210       .  T
C649        C650   1.210       .  T
C651        C652   1.202       .  T
C653        C654   1.202       .  T
C655        C656   1.210       .  T
C657        C658   1.352       .  D
C657        H659   1.086       .  S
C658        H660   1.086       .  S
