geometry optimzed in LAMMPS
_audit_creation_date              2020-11-30 
_audit_creation_method            'lammps2cif' 
_symmetry_space_group_name_H-M    'P1' 
_symmetry_Int_Tables_number       1 
_symmetry_cell_setting            triclinic 
loop_ 
_symmetry_equiv_pos_as_xyz 
  x,y,z 
_cell_length_a                    36.6776502036884 
_cell_length_b                    38.42091500430443 
_cell_length_c                    35.969906497146134 
_cell_angle_alpha                 90.72587904352022 
_cell_angle_beta                  91.79712645268079 
_cell_angle_gamma                 90.91260742238356 
loop_ 
_atom_site_label 
_atom_site_type_symbol 
_atom_site_fract_x 
_atom_site_fract_y 
_atom_site_fract_z 
_atom_site_charge 
C1          C  0.42182581  0.41858211  0.41787268     0.42960
N2          N  0.43477077  0.46217321  0.45424108     0.01850
C3          C  0.09251305  0.06325930  0.45660319    -0.06030
H4          H  0.11281709  0.43158049  0.47852059     0.07340
C5          C  0.04118638  0.44021674  0.09572005    -0.06380
Co6        Co  0.00217098  0.49985896  0.43198758     0.74180
N7          N  0.06592051  0.46261891  0.46473278    -0.25560
Co8        Co  0.06589035  0.00152353  0.00512393     0.74070
C9          C  0.07396713  0.42278953  0.08411445     0.43060
N10         N  0.45528030  0.46489878  0.06508444     0.01460
N11         N  0.06250167  0.46436890  0.04674413     0.01570
N12         N  0.05088669  0.06000460  0.40869425    -0.46410
H13         H  0.47226136  0.42895355  0.38300433     0.07330
N14         N  0.04191005  0.46174469  0.43664581     0.01850
N15         N  0.06452837  0.04046301  0.04575165     0.01590
C16         C  0.08055200  0.08158497  0.08377093     0.43200
N17         N  0.43137396  0.46431477  0.03691869    -0.25020
C18         C  0.45607899  0.06495211  0.40611428    -0.05940
N19         N  0.41004434  0.43728011  0.44714602    -0.46120
N20         N  0.09044244  0.06419238  0.05303088    -0.46340
C21         C  0.42279543  0.08149283  0.41900169     0.42970
N22         N  0.04346343  0.03732045  0.43487620     0.01840
N23         N  0.43223563  0.04001969  0.03631540    -0.25040
N24         N  0.46136479  0.46176137  0.43043699    -0.25530
N25         N  0.45677977  0.04088219  0.06393034     0.01480
H26         H  0.38386470  0.06983686  0.02488032     0.07370
H27         H  0.03112039  0.07135210  0.12027099     0.07410
N28         N  0.06762808  0.03825220  0.46289701    -0.25580
N29         N  0.03616482  0.46539589  0.07085304    -0.25190
N30         N  0.43598922  0.03839486  0.45416312     0.01850
C31         C  0.07686667  0.41878230  0.42655947     0.43240
C32         C  0.40693190  0.43876909  0.04198436    -0.06440
N33         N  0.03847735  0.04079357  0.07028499    -0.25190
H34         H  0.02441273  0.43529400  0.11935021     0.07390
N35         N  0.04802857  0.43630157  0.41256109    -0.46410
H36         H  0.38333109  0.43345282  0.02396731     0.07250
C37         C  0.42017930  0.08198345  0.07710264     0.43080
C38         C  0.45569455  0.43502031  0.40650235    -0.05940
Co39       Co  0.43285756  0.50117571  0.49522899     0.73820
N40         N  0.44827785  0.44071733  0.09001305    -0.46130
C41         C  0.08108469  0.07754476  0.42082921     0.43340
N42         N  0.41213249  0.06330250  0.44863205    -0.46120
Co43       Co  0.49660501  0.00310828  0.06830873     0.73890
C44         C  0.04644255  0.06585479  0.09573157    -0.06450
C45         C  0.08929239  0.43658769  0.46062031    -0.06010
N46         N  0.46201574  0.03840778  0.42965456    -0.25540
N47         N  0.08597504  0.43928177  0.05381893    -0.46300
H48         H  0.11656673  0.06924074  0.47380337     0.07350
C49         C  0.40801257  0.06523352  0.04202296    -0.06420
Cl50       Cl  0.99940393  0.00159411  0.00017572    -0.49420
C51         C  0.41831781  0.42282768  0.07709849     0.43110
H52         H  0.47228992  0.07119735  0.38242432     0.07320
N53         N  0.45036101  0.06525551  0.08903674    -0.46140
C54         C  0.16533410  0.17637694  0.33453019    -0.01990
C55         C  0.16322678  0.32838512  0.33274659    -0.01990
C56         C  0.17189477  0.33281898  0.16808676    -0.01990
C57         C  0.17330875  0.17865593  0.17275384    -0.01990
C58         C  0.32468386  0.17292853  0.33372165    -0.01990
C59         C  0.33485789  0.17422363  0.17202003    -0.01990
C60         C  0.32630347  0.32664583  0.16063025    -0.01990
C61         C  0.32395087  0.32804423  0.32599030    -0.01990
C62         C  0.33474075  0.36070035  0.22495191    -0.20810
C63         C  0.33246059  0.32859019  0.20469721    -0.08850
C64         C  0.33684468  0.29847278  0.22708478     0.30010
C65         C  0.34614741  0.30096302  0.26473013    -0.20810
C66         C  0.33759376  0.33088341  0.28508429    -0.08860
C67         C  0.33537871  0.36193151  0.26431408     0.30020
F68         F  0.33141000  0.39312223  0.28155057    -0.19380
H69         H  0.33585708  0.38516164  0.21063386     0.18380
H70         H  0.35323923  0.27712705  0.27837229     0.18390
F71         F  0.32691685  0.26609857  0.21541159    -0.19370
C72         C  0.30214265  0.26414167  0.14235242    -0.20810
C73         C  0.33195593  0.28722883  0.14853913    -0.08850
C74         C  0.36662273  0.27061130  0.15164135     0.30010
C75         C  0.36888156  0.23365701  0.15511181    -0.20810
C76         C  0.33688989  0.21255562  0.15614179    -0.08860
C77         C  0.30599896  0.22846885  0.14026480     0.30020
F78         F  0.27949490  0.21034861  0.12117066    -0.19380
H79         H  0.27447007  0.27192488  0.14207274     0.18380
H80         H  0.39527040  0.22214770  0.16035006     0.18390
F81         F  0.39773484  0.28984764  0.15653720    -0.19370
C82         C  0.35746164  0.19723077  0.27562692    -0.20810
C83         C  0.33944213  0.16908177  0.29291034    -0.08850
C84         C  0.33820656  0.13778298  0.27189803     0.30010
C85         C  0.34153619  0.13870974  0.23284592    -0.20810
C86         C  0.34929258  0.17038241  0.21403886    -0.08860
C87         C  0.36307945  0.19778589  0.23737803     0.30020
F88         F  0.38212602  0.22525434  0.22485749    -0.19380
H89         H  0.36704705  0.21970100  0.29162923     0.18380
H90         H  0.33424318  0.11543064  0.21683458     0.18390
F91         F  0.32963226  0.10716159  0.28816750    -0.19370
C92         C  0.34423169  0.23350693  0.36690676    -0.20810
C93         C  0.32214563  0.21299576  0.34175136    -0.08850
C94         C  0.29710363  0.23107023  0.31919369     0.30010
C95         C  0.29815013  0.26642395  0.31688667    -0.20810
C96         C  0.32237981  0.28822390  0.33802750    -0.08860
C97         C  0.34352615  0.27076370  0.36599108     0.30020
F98         F  0.36334624  0.28866193  0.39244470    -0.19380
H99         H  0.36248108  0.22103671  0.38661956     0.18380
H100        H  0.28224228  0.27533766  0.29377293     0.18390
F101        F  0.27357287  0.21455568  0.29501069    -0.19370
C102        C  0.23580633  0.16811775  0.20729425    -0.20810
C103        C  0.21363732  0.16359233  0.17490977    -0.08850
C104        C  0.23243713  0.15039948  0.14367354     0.30010
C105        C  0.27115034  0.14665599  0.14503442    -0.20810
C106        C  0.29284080  0.16305905  0.17394774    -0.08860
C107        C  0.27289518  0.17446266  0.20477227     0.30020
F108        F  0.28758259  0.19681060  0.23054293    -0.19380
H109        H  0.22545205  0.17420585  0.23369804     0.18380
H110        H  0.28343926  0.13512259  0.12120425     0.18390
F111        F  0.21409620  0.14218015  0.11136755    -0.19370
C112        C  0.20183246  0.27414989  0.16882957    -0.20810
C113        C  0.16997793  0.29246256  0.16106123    -0.08850
C114        C  0.13835798  0.27201128  0.15161415     0.30010
C115        C  0.13964825  0.23519462  0.15268524    -0.20810
C116        C  0.17308711  0.21722380  0.15776277    -0.08860
C117        C  0.20453151  0.23888820  0.16191981     0.30020
F118        F  0.23752623  0.22650786  0.16971150    -0.19380
H119        H  0.22587759  0.28759380  0.18036639     0.18380
H120        H  0.11402897  0.22079473  0.15158415     0.18390
F121        F  0.10551715  0.28698461  0.14536895    -0.19370
C122        C  0.26998707  0.36964083  0.16764103    -0.20810
C123        C  0.28638918  0.34083503  0.14964746    -0.08850
C124        C  0.26387057  0.32769318  0.11935571     0.30010
C125        C  0.22578066  0.32868327  0.12175619    -0.20810
C126        C  0.20953263  0.34620132  0.15178285    -0.08860
C127        C  0.23159700  0.37373283  0.16582866     0.30020
F128        F  0.21649004  0.40384174  0.17759513    -0.19380
H129        H  0.28578978  0.38950176  0.18212087     0.18380
H130        H  0.21012390  0.31143215  0.10331693     0.18390
F131        F  0.27699870  0.30876719  0.09077547    -0.19370
C132        C  0.17151678  0.36492036  0.27314375    -0.20810
C133        C  0.15072816  0.33882700  0.29098098    -0.08850
C134        C  0.12863955  0.31863786  0.26553140     0.30010
C135        C  0.13475929  0.31926751  0.22692622    -0.20810
C136        C  0.16544282  0.33652632  0.21169783    -0.08860
C137        C  0.18423426  0.35919228  0.23736378     0.30020
F138        F  0.21850216  0.37089911  0.23316113    -0.19380
H139        H  0.18824226  0.38302474  0.28925223     0.18380
H140        H  0.11528330  0.30530656  0.20916918     0.18390
F141        F  0.09740161  0.30306363  0.27570983    -0.19370
C142        C  0.22400123  0.32107103  0.30318530    -0.20810
C143        C  0.20558497  0.33420728  0.33382792    -0.08850
C144        C  0.22771414  0.34872448  0.36327511     0.30010
C145        C  0.26602614  0.34614155  0.36155599    -0.20810
C146        C  0.28306263  0.33918112  0.32722065    -0.08860
C147        C  0.25899772  0.33193540  0.29650902     0.30020
F148        F  0.26996435  0.32631379  0.26136736    -0.19380
H149        H  0.20962462  0.30604953  0.28146490     0.18380
H150        H  0.28222391  0.34965425  0.38701881     0.18390
F151        F  0.21311154  0.35866779  0.39585096    -0.19370
C152        C  0.13127347  0.16026561  0.27025629    -0.20810
C153        C  0.15652802  0.18043784  0.29221979    -0.08850
C154        C  0.17600470  0.20668868  0.27380138     0.30010
C155        C  0.17366184  0.20965978  0.23601681    -0.20810
C156        C  0.15816720  0.18285326  0.21321927    -0.08860
C157        C  0.13216130  0.16115917  0.23090528     0.30020
F158        F  0.10694002  0.14175729  0.21130764    -0.19380
H159        H  0.11202733  0.14287819  0.28295555     0.18380
H160        H  0.19129044  0.22955771  0.22587566     0.18390
F161        F  0.20074606  0.22802623  0.29183010    -0.19370
C162        C  0.22652335  0.16579374  0.37172132    -0.20810
C163        C  0.20574738  0.16296585  0.33830285    -0.08850
C164        C  0.22395378  0.14717999  0.30828233     0.30010
C165        C  0.26199264  0.14620649  0.30794821    -0.20810
C166        C  0.28378407  0.15992267  0.33787352    -0.08860
C167        C  0.26489780  0.16738224  0.37106158     0.30020
F168        F  0.28341169  0.17922842  0.40208901    -0.19380
H169        H  0.21328288  0.17158963  0.39751713     0.18380
H170        H  0.27298203  0.13800237  0.28210409     0.18390
F171        F  0.20545675  0.13298346  0.27843620    -0.19370
C172        C  0.12661326  0.26850551  0.33630240    -0.20810
C173        C  0.15863466  0.28863197  0.34343029    -0.08850
C174        C  0.18545147  0.27124570  0.36567731     0.30010
C175        C  0.18688151  0.23527513  0.36652716    -0.20810
C176        C  0.15938291  0.21451707  0.34918362    -0.08860
C177        C  0.12675373  0.23203036  0.33907726     0.30020
F178        F  0.09623746  0.21371250  0.32813850    -0.19380
H179        H  0.10093046  0.28066913  0.33068553     0.18380
H180        H  0.21091197  0.22534253  0.37975135     0.18390
F181        F  0.21022824  0.28817711  0.38814964    -0.19370
C182        C  0.11798259  0.09133647  0.36612793    -0.20810
C183        C  0.10127385  0.10239499  0.39851622    -0.08850
C184        C  0.10446039  0.13713122  0.40987010     0.30010
C185        C  0.12380750  0.16082475  0.38875133    -0.20810
C186        C  0.14091525  0.15048846  0.35558048    -0.08860
C187        C  0.13831629  0.11477059  0.34532938     0.30020
F188        F  0.15590373  0.10202522  0.31568089    -0.19380
H189        H  0.11615108  0.06421908  0.35751803     0.18380
H190        H  0.12595709  0.18711046  0.39967099     0.18390
F191        F  0.08873211  0.14820975  0.44148441    -0.19370
C192        C  0.11236759  0.37028362  0.08791082    -0.20810
C193        C  0.09563976  0.39800541  0.10575816    -0.08850
C194        C  0.10126893  0.40296420  0.14409624     0.30010
C195        C  0.12449474  0.38124603  0.16402477    -0.20810
C196        C  0.14202712  0.35305276  0.14664509    -0.08860
C197        C  0.13486687  0.34773422  0.10798407     0.30020
F198        F  0.14912426  0.32066660  0.08923788    -0.19380
H199        H  0.10794970  0.36605691  0.05825896     0.18380
H200        H  0.12952285  0.38794213  0.19298984     0.18390
F201        F  0.08632190  0.43031132  0.16202935    -0.19370
C202        C  0.38830231  0.13234879  0.16057696    -0.20810
C203        C  0.35771559  0.15063487  0.14629752    -0.08850
C204        C  0.35130511  0.14873706  0.10717907     0.30010
C205        C  0.37146097  0.12640795  0.08483455    -0.20810
C206        C  0.39995785  0.10681618  0.10021224    -0.08860
C207        C  0.40878697  0.11084365  0.13820889     0.30020
F208        F  0.43706440  0.09360700  0.15431253    -0.19380
H209        H  0.39756415  0.13444027  0.18927609     0.18380
H210        H  0.36509358  0.12495198  0.05525321     0.18390
F211        F  0.32642973  0.16916590  0.08988474    -0.19370
C212        C  0.13321799  0.16277605  0.11364646    -0.20810
C213        C  0.14987120  0.15291534  0.14793654    -0.08850
C214        C  0.14702972  0.11727694  0.15743016     0.30010
C215        C  0.12385046  0.09438769  0.13692953    -0.20810
C216        C  0.10486445  0.10572284  0.10512081    -0.08860
C217        C  0.11065909  0.13965700  0.09284735     0.30020
F218        F  0.09424877  0.15055388  0.06079499    -0.19380
H219        H  0.13782014  0.18811372  0.10195550     0.18380
H220        H  0.12094912  0.06764907  0.14572951     0.18390
F221        F  0.16579776  0.10479388  0.18741800    -0.19370
C222        C  0.36235432  0.40568622  0.38677993    -0.20810
C223        C  0.39798895  0.39543168  0.39456324    -0.08850
C224        C  0.41076956  0.36511405  0.37749603     0.30010
C225        C  0.38694954  0.34409645  0.35520078    -0.20810
C226        C  0.34973527  0.35240140  0.35006747    -0.08860
C227        C  0.33919881  0.38575797  0.36340464     0.30020
F228        F  0.30809265  0.40135683  0.35159433    -0.19380
H229        H  0.35294841  0.43047281  0.39716819     0.18380
H230        H  0.39745907  0.32085290  0.34230009     0.18390
F231        F  0.44598550  0.35554995  0.38283262    -0.19370
C232        C  0.33804343  0.12638408  0.38381892    -0.20810
C233        C  0.35119278  0.15256186  0.36007106    -0.08850
C234        C  0.38976185  0.15602933  0.35803828     0.30010
C235        C  0.41316976  0.13287993  0.37680415    -0.20810
C236        C  0.39911309  0.10717025  0.39996562    -0.08860
C237        C  0.36132274  0.10536272  0.40446668     0.30020
F238        F  0.34619859  0.08175599  0.42743327    -0.19380
H239        H  0.30948565  0.12045481  0.38634003     0.18380
H240        H  0.44233369  0.13519013  0.37334845     0.18390
F241        F  0.40512109  0.18057068  0.33649258    -0.19370
C242        C  0.12610964  0.41015314  0.38256622    -0.20810
C243        C  0.09917165  0.39579767  0.40437747    -0.08850
C244        C  0.09525601  0.35975197  0.40638216     0.30010
C245        C  0.11698467  0.33823033  0.38506415    -0.20810
C246        C  0.14297439  0.35210865  0.36051318    -0.08860
C247        C  0.14806515  0.38887352  0.36133328     0.30020
F248        F  0.17571467  0.40483943  0.34404995    -0.19380
H249        H  0.13053247  0.43811282  0.38238455     0.18380
H250        H  0.11264030  0.31071121  0.38838117     0.18390
F251        F  0.07036368  0.34530554  0.42897419    -0.19370
C252        C  0.40653626  0.39004186  0.13559853    -0.20810
C253        C  0.39843694  0.39568073  0.09780534    -0.08850
C254        C  0.37095787  0.37515152  0.08015523     0.30010
C255        C  0.34985674  0.35235486  0.10060645    -0.20810
C256        C  0.35447116  0.34924809  0.13949050    -0.08860
C257        C  0.38567818  0.36652773  0.15606765     0.30020
F258        F  0.39817578  0.35938968  0.19094196    -0.19380
H259        H  0.42919791  0.40383261  0.14945316     0.18380
H260        H  0.32978802  0.33715035  0.08523431     0.18390
F261        F  0.36446967  0.37644292  0.04287558    -0.19370
C262        C  0.42182424  0.41858358  0.91787230     0.42960
N263        N  0.43476958  0.46217477  0.95424034     0.01850
C264        C  0.09251041  0.06325984  0.95660394    -0.06030
H265        H  0.11281703  0.43158173  0.97851681     0.07340
C266        C  0.04118725  0.44021576  0.59572100    -0.06380
Co267      Co  0.00216956  0.49985972  0.93198650     0.74180
N268        N  0.06591948  0.46261948  0.96473066    -0.25560
Co269      Co  0.06589206  0.00152398  0.50512407     0.74070
C270        C  0.07396830  0.42278882  0.58411539     0.43060
N271        N  0.45528096  0.46489733  0.56508541     0.01460
N272        N  0.06250275  0.46436873  0.54674567     0.01570
N273        N  0.05088421  0.06000488  0.90869484    -0.46410
H274        H  0.47225959  0.42895460  0.88300352     0.07330
N275        N  0.04190876  0.46174550  0.93664388     0.01850
N276        N  0.06452986  0.04046361  0.54575172     0.01590
C277        C  0.08055400  0.08158484  0.58377180     0.43200
N278        N  0.43137464  0.46431304  0.53691964    -0.25020
C279        C  0.45607615  0.06495581  0.90611575    -0.05940
N280        N  0.41004301  0.43728175  0.94714560    -0.46120
N281        N  0.09044399  0.06419288  0.55303115    -0.46340
C282        C  0.42279182  0.08149509  0.91900279     0.42970
N283        N  0.04346156  0.03732018  0.93487636     0.01840
N284        N  0.43223713  0.04001893  0.53631455    -0.25040
N285        N  0.46136343  0.46176273  0.93043607    -0.25530
N286        N  0.45678141  0.04088140  0.56392937     0.01480
H287        H  0.38386628  0.06983671  0.52488004     0.07370
H288        H  0.03112286  0.07135116  0.62027227     0.07410
N289        N  0.06762614  0.03825200  0.96289721    -0.25580
N290        N  0.03616574  0.46539532  0.57085439    -0.25190
N291        N  0.43598695  0.03839771  0.95416434     0.01850
C292        C  0.07686623  0.41878415  0.92655571     0.43240
C293        C  0.40693321  0.43876667  0.54198515    -0.06440
N294        N  0.03847906  0.04079376  0.57028534    -0.25190
H295        H  0.02441320  0.43529243  0.61935073     0.07390
N296        N  0.04802751  0.43630311  0.91255831    -0.46410
H297        H  0.38333271  0.43344981  0.52396787     0.07250
C298        C  0.42018154  0.08198312  0.57710200     0.43080
C299        C  0.45569292  0.43502160  0.90650158    -0.05940
Co300      Co  0.43285697  0.50117725  0.99522823     0.73820
N301        N  0.44827920  0.44071539  0.59001374    -0.46130
C302        C  0.08108159  0.07754562  0.92083025     0.43340
N303        N  0.41212895  0.06330431  0.94863288    -0.46120
Co304      Co  0.49660630  0.00310740  0.56830849     0.73890
C305        C  0.04644466  0.06585441  0.59573247    -0.06450
C306        C  0.08929193  0.43658884  0.96061705    -0.06010
N307        N  0.46201364  0.03841150  0.92965592    -0.25540
N308        N  0.08597610  0.43928152  0.55382012    -0.46300
H309        H  0.11656383  0.06924172  0.97380434     0.07350
C310        C  0.40801436  0.06523316  0.54202232    -0.06420
Cl311      Cl  0.99940559  0.00159426  0.50017596    -0.49420
C312        C  0.41831956  0.42282508  0.57709917     0.43110
H313        H  0.47228630  0.07120124  0.88242529     0.07320
N314        N  0.45036312  0.06525486  0.58903569    -0.46140
C315        C  0.16533288  0.17637563  0.83453182    -0.01990
C316        C  0.16322596  0.32838296  0.83274427    -0.01990
C317        C  0.17189932  0.33281701  0.66808338    -0.01990
C318        C  0.17331382  0.17865398  0.67275397    -0.01990
C319        C  0.32467942  0.17292899  0.83372380    -0.01990
C320        C  0.33485874  0.17421683  0.67202512    -0.01990
C321        C  0.32630836  0.32664116  0.66063211    -0.01990
C322        C  0.32394950  0.32804549  0.82599041    -0.01990
C323        C  0.33474590  0.36069806  0.72495189    -0.20810
C324        C  0.33246575  0.32858702  0.70469887    -0.08850
C325        C  0.33684986  0.29847051  0.72708807     0.30010
C326        C  0.34615051  0.30096243  0.76473359    -0.20810
C327        C  0.33759500  0.33088340  0.78508550    -0.08860
C328        C  0.33538202  0.36193084  0.76431397     0.30020
F329        F  0.33141260  0.39312221  0.78154892    -0.19380
H330        H  0.33586274  0.38515867  0.71063255     0.18380
H331        H  0.35324187  0.27712713  0.77837747     0.18390
F332        F  0.32692401  0.26609537  0.71541663    -0.19370
C333        C  0.30214186  0.26413796  0.64236498    -0.20810
C334        C  0.33195773  0.28722348  0.64854301    -0.08850
C335        C  0.36662352  0.27060403  0.65164158     0.30010
C336        C  0.36888041  0.23364976  0.65511383    -0.20810
C337        C  0.33688793  0.21254966  0.65614853    -0.08860
C338        C  0.30599468  0.22846502  0.64027854     0.30020
F339        F  0.27948541  0.21034804  0.62118911    -0.19380
H340        H  0.27447006  0.27192362  0.64209051     0.18380
H341        H  0.39526918  0.22213929  0.66034906     0.18390
F342        F  0.39773734  0.28983883  0.65653155    -0.19370
C343        C  0.35746357  0.19722802  0.77563149    -0.20810
C344        C  0.33944254  0.16908029  0.79291513    -0.08850
C345        C  0.33820703  0.13778043  0.77190445     0.30010
C346        C  0.34153954  0.13870489  0.73285257    -0.20810
C347        C  0.34929522  0.17037688  0.71404390    -0.08860
C348        C  0.36308153  0.19778154  0.73738218     0.30020
F349        F  0.38212920  0.22524871  0.72486009    -0.19380
H350        H  0.36704748  0.21969923  0.79163305     0.18380
H351        H  0.33424681  0.11542506  0.71684236     0.18390
F352        F  0.32962889  0.10716041  0.78817473    -0.19370
C353        C  0.34422380  0.23350838  0.86691133    -0.20810
C354        C  0.32214061  0.21299679  0.84175349    -0.08850
C355        C  0.29710079  0.23107172  0.81919355     0.30010
C356        C  0.29814746  0.26642575  0.81688633    -0.20810
C357        C  0.32237634  0.28822539  0.83802840    -0.08860
C358        C  0.34351990  0.27076524  0.86599410     0.30020
F359        F  0.36333889  0.28866376  0.89244835    -0.19380
H360        H  0.36246986  0.22103862  0.88662755     0.18380
H361        H  0.28224030  0.27534045  0.79377241     0.18390
F362        F  0.27357048  0.21455744  0.79501037    -0.19370
C363        C  0.23580597  0.16809560  0.70729477    -0.20810
C364        C  0.21364003  0.16358628  0.67490699    -0.08850
C365        C  0.23244031  0.15040083  0.64366784     0.30010
C366        C  0.27115291  0.14665315  0.64503076    -0.20810
C367        C  0.29284264  0.16304706  0.67395069    -0.08860
C368        C  0.27289516  0.17443988  0.70477863     0.30020
F369        F  0.28758009  0.19678032  0.73055761    -0.19380
H370        H  0.22544701  0.17417753  0.73370169     0.18380
H371        H  0.28344262  0.13512653  0.62119669     0.18390
F372        F  0.21410063  0.14219407  0.61135775    -0.19370
C373        C  0.20183795  0.27414927  0.66883475    -0.20810
C374        C  0.16998475  0.29246066  0.66105641    -0.08850
C375        C  0.13836762  0.27200852  0.65160180     0.30010
C376        C  0.13965850  0.23519207  0.65267522    -0.20810
C377        C  0.17309646  0.21722170  0.65776264    -0.08860
C378        C  0.20454004  0.23888679  0.66193110     0.30020
F379        F  0.23753068  0.22650756  0.66975000    -0.19380
H380        H  0.22587900  0.28759507  0.68037858     0.18380
H381        H  0.11403926  0.22079221  0.65156912     0.18390
F382        F  0.10552711  0.28698094  0.64535162    -0.19370
C383        C  0.26999249  0.36963690  0.66764081    -0.20810
C384        C  0.28639462  0.34083050  0.64964859    -0.08850
C385        C  0.26387690  0.32768737  0.61935678     0.30010
C386        C  0.22578708  0.32867859  0.62175557    -0.20810
C387        C  0.20953783  0.34619871  0.65178029    -0.08860
C388        C  0.23160265  0.37372947  0.66582667     0.30020
F389        F  0.21649652  0.40384314  0.67758046    -0.19380
H390        H  0.28579540  0.38949892  0.68211876     0.18380
H391        H  0.21013115  0.31142614  0.60331702     0.18390
F392        F  0.27700544  0.30875696  0.59078000    -0.19370
C393        C  0.17150475  0.36491961  0.77314123    -0.20810
C394        C  0.15072467  0.33881966  0.79097777    -0.08850
C395        C  0.12864706  0.31862089  0.76552677     0.30010
C396        C  0.13476894  0.31925243  0.72692238    -0.20810
C397        C  0.16544639  0.33652205  0.71169503    -0.08860
C398        C  0.18422550  0.35919755  0.73736113     0.30020
F399        F  0.21848595  0.37092437  0.73315794    -0.19380
H400        H  0.18822219  0.38302961  0.78925019     0.18380
H401        H  0.11529947  0.30528342  0.70916510     0.18390
F402        F  0.09741702  0.30303022  0.77570222    -0.19370
C403        C  0.22400056  0.32107720  0.80317884    -0.20810
C404        C  0.20558367  0.33420909  0.83382328    -0.08850
C405        C  0.22771225  0.34872473  0.86327185     0.30010
C406        C  0.26602419  0.34614283  0.86155323    -0.20810
C407        C  0.28306167  0.33918374  0.82721830    -0.08860
C408        C  0.25899788  0.33194061  0.79650498     0.30020
F409        F  0.26996574  0.32632033  0.76136354    -0.19380
H410        H  0.20962533  0.30605626  0.78145717     0.18380
H411        H  0.28222134  0.34965414  0.88701667     0.18390
F412        F  0.21310919  0.35866408  0.89584884    -0.19370
C413        C  0.13127149  0.16027098  0.77025579    -0.20810
C414        C  0.15652876  0.18043848  0.79222108    -0.08850
C415        C  0.17601142  0.20668603  0.77380415     0.30010
C416        C  0.17367466  0.20965556  0.73601937    -0.20810
C417        C  0.15817347  0.18285345  0.71322013    -0.08860
C418        C  0.13216102  0.16116536  0.73090468     0.30020
F419        F  0.10693564  0.14176974  0.71130536    -0.19380
H420        H  0.11202106  0.14288714  0.78295391     0.18380
H421        H  0.19130972  0.22954886  0.72588135     0.18390
F422        F  0.20075340  0.22802120  0.79183502    -0.19370
C423        C  0.22652157  0.16578865  0.87172400    -0.20810
C424        C  0.20574504  0.16296209  0.83830550    -0.08850
C425        C  0.22395037  0.14717619  0.80828457     0.30010
C426        C  0.26198917  0.14620820  0.80794679    -0.20810
C427        C  0.28378007  0.15992334  0.83787261    -0.08860
C428        C  0.26489626  0.16737435  0.87106380     0.30020
F429        F  0.28341348  0.17920776  0.90209450    -0.19380
H430        H  0.21328171  0.17158441  0.89752020     0.18380
H431        H  0.27297893  0.13800692  0.78210167     0.18390
F432        F  0.20545172  0.13297507  0.77844199    -0.19370
C433        C  0.12661347  0.26850439  0.83630927    -0.20810
C434        C  0.15863621  0.28863041  0.84343154    -0.08850
C435        C  0.18545672  0.27124382  0.86567372     0.30010
C436        C  0.18688468  0.23527315  0.86652585    -0.20810
C437        C  0.15938372  0.21451564  0.84918573    -0.08860
C438        C  0.12675401  0.23202925  0.83908277     0.30020
F439        F  0.09623675  0.21371182  0.82814633    -0.19380
H440        H  0.10093018  0.28066907  0.83069548     0.18380
H441        H  0.21091660  0.22533964  0.87974658     0.18390
F442        F  0.21023888  0.28817434  0.88814033    -0.19370
C443        C  0.11797372  0.09133795  0.86612550    -0.20810
C444        C  0.10127058  0.10239567  0.89851722    -0.08850
C445        C  0.10446271  0.13713065  0.90987431     0.30010
C446        C  0.12380994  0.16082381  0.88875532    -0.20810
C447        C  0.14091224  0.15048827  0.85558112    -0.08860
C448        C  0.13830780  0.11477147  0.84532679     0.30020
F449        F  0.15589048  0.10202621  0.81567527    -0.19380
H450        H  0.11613796  0.06422135  0.85751315     0.18380
H451        H  0.12596457  0.18710840  0.89967755     0.18390
F452        F  0.08873983  0.14820830  0.94149194    -0.19370
C453        C  0.11237414  0.37028617  0.58790797    -0.20810
C454        C  0.09564075  0.39800335  0.60575779    -0.08850
C455        C  0.10126485  0.40295669  0.64409720     0.30010
C456        C  0.12449146  0.38123835  0.66402463    -0.20810
C457        C  0.14203086  0.35305070  0.64664214    -0.08860
C458        C  0.13487460  0.34773673  0.60797983     0.30020
F459        F  0.14913654  0.32067314  0.58923099    -0.19380
H460        H  0.10795983  0.36606316  0.55825513     0.18380
H461        H  0.12951425  0.38793046  0.69299136     0.18390
F462        F  0.08631221  0.43029910  0.66203329    -0.19370
C463        C  0.38830207  0.13234076  0.66058050    -0.20810
C464        C  0.35771780  0.15063050  0.64630145    -0.08850
C465        C  0.35131005  0.14873809  0.60718236     0.30010
C466        C  0.37146571  0.12641015  0.58483614    -0.20810
C467        C  0.39996004  0.10681463  0.60021314    -0.08860
C468        C  0.40878681  0.11083713  0.63821088     0.30020
F469        F  0.43706169  0.09359657  0.65431420    -0.19380
H470        H  0.39756172  0.13442772  0.68928054     0.18380
H471        H  0.36510044  0.12495807  0.55525424     0.18390
F472        F  0.32643780  0.16917165  0.58988954    -0.19370
C473        C  0.13322763  0.16277272  0.61364390    -0.20810
C474        C  0.14987458  0.15291398  0.64793765    -0.08850
C475        C  0.14702756  0.11727687  0.65743500     0.30010
C476        C  0.12384725  0.09438833  0.63693468    -0.20810
C477        C  0.10486688  0.10572222  0.60512198    -0.08860
C478        C  0.11066835  0.13965410  0.59284463     0.30020
F479        F  0.09426447  0.15054915  0.56078823    -0.19380
H480        H  0.13783612  0.18810808  0.60194982     0.18380
H481        H  0.12094124  0.06765105  0.64573763     0.18390
F482        F  0.16579126  0.10479456  0.68742599    -0.19370
C483        C  0.36235291  0.40568789  0.88677927    -0.20810
C484        C  0.39798727  0.39543295  0.89456334    -0.08850
C485        C  0.41076752  0.36511450  0.87749757     0.30010
C486        C  0.38694737  0.34409650  0.85520297    -0.20810
C487        C  0.34973348  0.35240233  0.85006826    -0.08860
C488        C  0.33919735  0.38575939  0.86340430     0.30020
F489        F  0.30809155  0.40135842  0.85159317    -0.19380
H490        H  0.35294734  0.43047493  0.89716662     0.18380
H491        H  0.39745657  0.32085222  0.84230348     0.18390
F492        F  0.44598328  0.35555008  0.88283481    -0.19370
C493        C  0.33803304  0.12635488  0.88378867    -0.20810
C494        C  0.35118368  0.15255899  0.86007342    -0.08850
C495        C  0.38975241  0.15604881  0.85806691     0.30010
C496        C  0.41316284  0.13290091  0.87683203    -0.20810
C497        C  0.39910547  0.10716583  0.89996219    -0.08860
C498        C  0.36131171  0.10532852  0.90443091     0.30020
F499        F  0.34618621  0.08168785  0.92735809    -0.19380
H500        H  0.30947532  0.12040855  0.88628461     0.18380
H501        H  0.44232879  0.13523183  0.87340060     0.18390
F502        F  0.40510918  0.18061326  0.83654814    -0.19370
C503        C  0.12611065  0.41015330  0.88256409    -0.20810
C504        C  0.09917044  0.39579892  0.90437331    -0.08850
C505        C  0.09525279  0.35975340  0.90637698     0.30010
C506        C  0.11698170  0.33823100  0.88506007    -0.20810
C507        C  0.14297308  0.35210805  0.86050997    -0.08860
C508        C  0.14806628  0.38887289  0.86133198     0.30020
F509        F  0.17572046  0.40483782  0.84405498    -0.19380
H510        H  0.13053586  0.43811270  0.88238422     0.18380
H511        H  0.11263670  0.31071230  0.88837842     0.18390
F512        F  0.07035882  0.34530776  0.92896773    -0.19370
C513        C  0.40654097  0.39003640  0.63559838    -0.20810
C514        C  0.39844001  0.39567674  0.59780570    -0.08850
C515        C  0.37096060  0.37514762  0.58015594     0.30010
C516        C  0.34986064  0.35234985  0.60060717    -0.20810
C517        C  0.35447637  0.34924211  0.63949106    -0.08860
C518        C  0.38568384  0.36652138  0.65606752     0.30020
F519        F  0.39818210  0.35938267  0.69094145    -0.19380
H520        H  0.42920291  0.40382697  0.64945269     0.18380
H521        H  0.32979108  0.33714616  0.58523527     0.18390
F522        F  0.36447049  0.37644060  0.54287666    -0.19370
C523        C  0.42182509  0.91857995  0.41787343     0.42960
N524        N  0.43477035  0.96217116  0.45424147     0.01850
C525        C  0.09251099  0.56326008  0.45660575    -0.06030
H526        H  0.11281820  0.93158063  0.47851672     0.07340
C527        C  0.04118664  0.94021547  0.09571907    -0.06380
Co528      Co  0.00217146  0.99985963  0.43198617     0.74180
N529        N  0.06592121  0.96261904  0.46473029    -0.25560
Co530      Co  0.06589000  0.50152433  0.00512458     0.74070
C531        C  0.07396742  0.92278815  0.08411333     0.43060
N532        N  0.45527871  0.96489758  0.06508526     0.01460
N533        N  0.06250194  0.96436800  0.04674340     0.01570
N534        N  0.05088531  0.56000432  0.40869624    -0.46410
H535        H  0.47226096  0.92895046  0.38300530     0.07330
N536        N  0.04191049  0.96174524  0.43664353     0.01850
N537        N  0.06452786  0.54046388  0.04575226     0.01590
C538        C  0.08055222  0.58158494  0.08377246     0.43200
N539        N  0.43137251  0.96431326  0.03691938    -0.25020
C540        C  0.45607812  0.56495499  0.40611543    -0.05940
N541        N  0.41004360  0.93727837  0.44714644    -0.46120
N542        N  0.09044215  0.56419297  0.05303182    -0.46340
C543        C  0.42279385  0.58149438  0.41900257     0.42970
N544        N  0.04346254  0.53731984  0.43487795     0.01840
N545        N  0.43223798  0.54002105  0.03631470    -0.25040
N546        N  0.46136457  0.96175874  0.43043762    -0.25530
N547        N  0.45678242  0.54088321  0.06392936     0.01480
H548        H  0.38386702  0.56983865  0.02488070     0.07370
H549        H  0.03112093  0.57135147  0.12027281     0.07410
N550        N  0.06762684  0.53825214  0.46289904    -0.25580
N551        N  0.03616515  0.96539497  0.07085237    -0.25190
N552        N  0.43598916  0.53839714  0.45416427     0.01850
C553        C  0.07686721  0.91878326  0.42655569     0.43240
C554        C  0.40693122  0.93876672  0.04198464    -0.06440
N555        N  0.03847702  0.54079416  0.07028578    -0.25190
H556        H  0.02441277  0.93529244  0.11934901     0.07390
N557        N  0.04802881  0.93630259  0.41255816    -0.46410
H558        H  0.38333085  0.93344978  0.02396721     0.07250
C559        C  0.42018248  0.58198465  0.07710253     0.43080
C560        C  0.45569418  0.93501753  0.40650325    -0.05940
Co561      Co  0.43285693  0.00117431  0.49522860     0.73820
N562        N  0.44827700  0.94071548  0.09001341    -0.46130
C563        C  0.08108244  0.57754542  0.42083177     0.43340
N564        N  0.41213119  0.56330375  0.44863283    -0.46120
Co565      Co  0.49660708  0.50310886  0.06830762     0.73890
C566        C  0.04644272  0.56585471  0.09573300    -0.06450
C567        C  0.08929322  0.93658802  0.46061688    -0.06010
N568        N  0.46201573  0.53841078  0.42965571    -0.25540
N569        N  0.08597514  0.93928063  0.05381784    -0.46300
H570        H  0.11656422  0.56924227  0.47380632     0.07350
C571        C  0.40801521  0.56523509  0.04202280    -0.06420
Cl572      Cl  0.99940360  0.50159448  0.00017625    -0.49420
C573        C  0.41831754  0.92282504  0.07709861     0.43110
H574        H  0.47228819  0.57120032  0.38242487     0.07320
N575        N  0.45036414  0.56525636  0.08903605    -0.46140
C576        C  0.16533361  0.67637507  0.33453265    -0.01990
C577        C  0.16322632  0.82838257  0.33274356    -0.01990
C578        C  0.17189790  0.83281658  0.16808251    -0.01990
C579        C  0.17331290  0.67865338  0.17275457    -0.01990
C580        C  0.32468046  0.67292808  0.33372429    -0.01990
C581        C  0.33485772  0.67421655  0.17202518    -0.01990
C582        C  0.32630663  0.82664065  0.16063111    -0.01990
C583        C  0.32394990  0.82804432  0.32598964    -0.01990
C584        C  0.33474435  0.86069738  0.22495105    -0.20810
C585        C  0.33246412  0.82858641  0.20469790    -0.08850
C586        C  0.33684867  0.79846985  0.22708695     0.30010
C587        C  0.34615016  0.80096166  0.26473232    -0.20810
C588        C  0.33759490  0.83088250  0.28508455    -0.08860
C589        C  0.33538119  0.86192999  0.26431316     0.30020
F590        F  0.33141187  0.89312127  0.28154833    -0.19380
H591        H  0.33586088  0.88515806  0.21063182     0.18380
H592        H  0.35324180  0.77712633  0.27837599     0.18390
F593        F  0.32692227  0.76609480  0.21541568    -0.19370
C594        C  0.30214037  0.76413737  0.14236415    -0.20810
C595        C  0.33195616  0.78722302  0.14854201    -0.08850
C596        C  0.36662201  0.77060369  0.15164069     0.30010
C597        C  0.36887904  0.73364949  0.15511338    -0.20810
C598        C  0.33688664  0.71254931  0.15614836    -0.08860
C599        C  0.30599330  0.72846442  0.14027820     0.30020
F600        F  0.27948402  0.71034723  0.12118904    -0.19380
H601        H  0.27446853  0.77192295  0.14208953     0.18380
H602        H  0.39526786  0.72213915  0.16034868     0.18390
F603        F  0.39773578  0.78983860  0.15653040    -0.19370
C604        C  0.35746350  0.69722749  0.27563144    -0.20810
C605        C  0.33944292  0.66907956  0.29291528    -0.08850
C606        C  0.33820734  0.63777981  0.27190447     0.30010
C607        C  0.34153905  0.63870454  0.23285251    -0.20810
C608        C  0.34929427  0.67037668  0.21404389    -0.08860
C609        C  0.36308072  0.69778131  0.23738204     0.30020
F610        F  0.38212782  0.72524875  0.22485974    -0.19380
H611        H  0.36704765  0.71969865  0.29163296     0.18380
H612        H  0.33424632  0.61542472  0.21684228     0.18390
F613        F  0.32963002  0.60715961  0.28817478    -0.19370
C614        C  0.34422492  0.73350759  0.36691120    -0.20810
C615        C  0.32214154  0.71299582  0.34175377    -0.08850
C616        C  0.29710146  0.73107045  0.31919388     0.30010
C617        C  0.29814837  0.76642435  0.31688593    -0.20810
C618        C  0.32237715  0.78822425  0.33802774    -0.08860
C619        C  0.34352074  0.77076441  0.36599370     0.30020
F620        F  0.36333938  0.78866316  0.39244805    -0.19380
H621        H  0.36247123  0.72103800  0.38662732     0.18380
H622        H  0.28224137  0.77533860  0.29377170     0.18390
F623        F  0.27357093  0.71455590  0.29501114    -0.19370
C624        C  0.23580516  0.66809490  0.20729508    -0.20810
C625        C  0.21363915  0.66358574  0.17490731    -0.08850
C626        C  0.23243933  0.65040029  0.14366810     0.30010
C627        C  0.27115196  0.64665258  0.14503094    -0.20810
C628        C  0.29284171  0.66304656  0.17395084    -0.08860
C629        C  0.27289429  0.67443934  0.20477881     0.30020
F630        F  0.28757918  0.69677983  0.23055778    -0.19380
H631        H  0.22544642  0.67417637  0.23370194     0.18380
H632        H  0.28344163  0.63512597  0.12119690     0.18390
F633        F  0.21409954  0.64219350  0.11135808    -0.19370
C634        C  0.20183673  0.77414893  0.16883448    -0.20810
C635        C  0.16998334  0.79246016  0.16105643    -0.08850
C636        C  0.13836608  0.77200786  0.15160299     0.30010
C637        C  0.13965713  0.73519143  0.15267660    -0.20810
C638        C  0.17309524  0.71722118  0.15776344    -0.08860
C639        C  0.20453881  0.73888634  0.16193140     0.30020
F640        F  0.23752951  0.72650716  0.16975024    -0.19380
H641        H  0.22587792  0.78759493  0.18037772     0.18380
H642        H  0.11403794  0.72079147  0.15157099     0.18390
F643        F  0.10552546  0.78698013  0.14535300    -0.19370
C644        C  0.26999080  0.86963657  0.16763939    -0.20810
C645        C  0.28639288  0.84082998  0.14964744    -0.08850
C646        C  0.26387515  0.82768666  0.11935571     0.30010
C647        C  0.22578532  0.82867799  0.12175444    -0.20810
C648        C  0.20953617  0.84619832  0.15177903    -0.08860
C649        C  0.23160094  0.87372927  0.16582516     0.30020
F650        F  0.21649466  0.90384184  0.17758193    -0.19380
H651        H  0.28579366  0.88949826  0.18211791     0.18380
H652        H  0.21012925  0.81142550  0.10331603     0.18390
F653        F  0.27700371  0.80875614  0.09077903    -0.19370
C654        C  0.17150796  0.86491856  0.27314031    -0.20810
C655        C  0.15072579  0.83882022  0.29097708    -0.08850
C656        C  0.12864551  0.81862374  0.26552642     0.30010
C657        C  0.13476657  0.81925508  0.22692176    -0.20810
C658        C  0.16544532  0.83652228  0.21169403    -0.08860
C659        C  0.18422764  0.85919524  0.23736011     0.30020
F660        F  0.21848983  0.87091733  0.23315681    -0.19380
H661        H  0.18822752  0.88302711  0.28924907     0.18380
H662        H  0.11529561  0.80528787  0.20916448     0.18390
F663        F  0.09741402  0.80303631  0.27570277    -0.19370
C664        C  0.22400092  0.82107461  0.30317938    -0.20810
C665        C  0.20558410  0.83420783  0.33382318    -0.08850
C666        C  0.22771270  0.84872428  0.36327128     0.30010
C667        C  0.26602466  0.84614219  0.36155271    -0.20810
C668        C  0.28306201  0.83918237  0.32721785    -0.08860
C669        C  0.25899804  0.83193820  0.29650495     0.30020
F670        F  0.26996565  0.82631736  0.26136351    -0.19380
H671        H  0.20962542  0.80605339  0.28145809     0.18380
H672        H  0.28222184  0.84965408  0.38701603     0.18390
F673        F  0.21310965  0.85866495  0.39584781    -0.19370
C674        C  0.13127217  0.66026965  0.27025688    -0.20810
C675        C  0.15652954  0.68043732  0.29222185    -0.08850
C676        C  0.17601187  0.70668495  0.27380473     0.30010
C677        C  0.17367426  0.70965480  0.23602002    -0.20810
C678        C  0.15817293  0.68285267  0.21322088    -0.08860
C679        C  0.13216110  0.66116416  0.23090576     0.30020
F680        F  0.10693565  0.64176834  0.21130675    -0.19380
H681        H  0.11202204  0.64288566  0.28295523     0.18380
H682        H  0.19130890  0.72954838  0.22588180     0.18390
F683        F  0.20075398  0.72802016  0.29183538    -0.19370
C684        C  0.22652258  0.66578909  0.37172490    -0.20810
C685        C  0.20574596  0.66296191  0.33830650    -0.08850
C686        C  0.22395125  0.64717535  0.30828590     0.30010
C687        C  0.26199005  0.64620676  0.30794829    -0.20810
C688        C  0.28378114  0.65992234  0.33787376    -0.08860
C689        C  0.26489728  0.66737447  0.37106469     0.30020
F690        F  0.28341447  0.67920887  0.40209501    -0.19380
H691        H  0.21328278  0.67158511  0.39752106     0.18380
H692        H  0.27297967  0.63800473  0.28210338     0.18390
F693        F  0.20545261  0.63297405  0.27844341    -0.19370
C694        C  0.12661377  0.76850371  0.33630712    -0.20810
C695        C  0.15863616  0.78862995  0.34343045    -0.08850
C696        C  0.18545574  0.77124376  0.36567425     0.30010
C697        C  0.18688415  0.73527310  0.36652664    -0.20810
C698        C  0.15938384  0.71451524  0.34918591    -0.08860
C699        C  0.12675428  0.73202862  0.33908171     0.30020
F700        F  0.09623729  0.71371092  0.32814501    -0.19380
H701        H  0.10093061  0.78066806  0.33069230     0.18380
H702        H  0.21091559  0.72533983  0.37974854     0.18390
F703        F  0.21023655  0.78817485  0.38814198    -0.19370
C704        C  0.11797507  0.59133738  0.36612725    -0.20810
C705        C  0.10127152  0.60239535  0.39851864    -0.08850
C706        C  0.10446328  0.63713049  0.40987527     0.30010
C707        C  0.12381046  0.66082355  0.38875609    -0.20810
C708        C  0.14091314  0.65048775  0.35558221    -0.08860
C709        C  0.13830911  0.61477080  0.34532838     0.30020
F710        F  0.15589204  0.60202534  0.31567714    -0.19380
H711        H  0.11613959  0.56422068  0.35751525     0.18380
H712        H  0.12596471  0.68710831  0.39967790     0.18390
F713        F  0.08874003  0.64820840  0.44149259    -0.19370
C714        C  0.11237231  0.87028476  0.08790679    -0.20810
C715        C  0.09563989  0.89800285  0.10575605    -0.08850
C716        C  0.10126480  0.90295711  0.14409527     0.30010
C717        C  0.12449120  0.88123877  0.16402299    -0.20810
C718        C  0.14202940  0.85305008  0.14664111    -0.08860
C719        C  0.13487250  0.84773528  0.10797901     0.30020
F720        F  0.14913376  0.82067099  0.08923074    -0.19380
H721        H  0.10795747  0.86606107  0.05825412     0.18380
H722        H  0.12951491  0.88793163  0.19298942     0.18390
F723        F  0.08631315  0.93030037  0.16203079    -0.19370
C724        C  0.38830182  0.63234131  0.16058092    -0.20810
C725        C  0.35771711  0.65063041  0.14630175    -0.08850
C726        C  0.35130945  0.64873788  0.10718270     0.30010
C727        C  0.37146580  0.62641055  0.08483658    -0.20810
C728        C  0.39996058  0.60681567  0.10021369    -0.08860
C729        C  0.40878714  0.61083817  0.13821141     0.30020
F730        F  0.43706236  0.59359813  0.15431477    -0.19380
H731        H  0.39756144  0.63442846  0.18928096     0.18380
H732        H  0.36510066  0.62495844  0.05525466     0.18390
F733        F  0.32643675  0.66917089  0.08988977    -0.19370
C734        C  0.13322617  0.66277252  0.11364476    -0.20810
C735        C  0.14987349  0.65291351  0.14793825    -0.08850
C736        C  0.14702660  0.61727631  0.15743527     0.30010
C737        C  0.12384605  0.59438795  0.13693500    -0.20810
C738        C  0.10486525  0.60572213  0.10512268    -0.08860
C739        C  0.11066660  0.63965410  0.09284558     0.30020
F740        F  0.09426235  0.65054944  0.06078949    -0.19380
H741        H  0.13783454  0.68810795  0.10195083     0.18380
H742        H  0.12094017  0.56765058  0.14573769     0.18390
F743        F  0.16579070  0.60479374  0.18742587    -0.19370
C744        C  0.36235385  0.90568572  0.38677943    -0.20810
C745        C  0.39798799  0.89543015  0.39456370    -0.08850
C746        C  0.41076808  0.86511202  0.37749718     0.30010
C747        C  0.38694792  0.84409481  0.35520181    -0.20810
C748        C  0.34973411  0.85240096  0.35006732    -0.08860
C749        C  0.33919825  0.88575790  0.36340382     0.30020
F750        F  0.30809267  0.90135733  0.35159273    -0.19380
H751        H  0.35294849  0.93047267  0.39716724     0.18380
H752        H  0.39745694  0.82085065  0.34230190     0.18390
F753        F  0.44598366  0.85554707  0.38283455    -0.19370
C754        C  0.33803512  0.62635636  0.38379155    -0.20810
C755        C  0.35118538  0.65255851  0.36007373    -0.08850
C756        C  0.38975410  0.65604676  0.35806490     0.30010
C757        C  0.41316459  0.63289879  0.37682982    -0.20810
C758        C  0.39910756  0.60716550  0.39996239    -0.08860
C759        C  0.36131408  0.60533031  0.40443384     0.30020
F760        F  0.34618894  0.58169202  0.42736397    -0.19380
H761        H  0.30947741  0.62041138  0.38628973     0.18380
H762        H  0.44233035  0.63522828  0.37339636     0.18390
F763        F  0.40511077  0.68060959  0.33654402    -0.19370
C764        C  0.12611054  0.91015264  0.38256291    -0.20810
C765        C  0.09917132  0.89579806  0.40437322    -0.08850
C766        C  0.09525431  0.85975251  0.40637745     0.30010
C767        C  0.11698289  0.83823022  0.38506006    -0.20810
C768        C  0.14297350  0.85210747  0.36050929    -0.08860
C769        C  0.14806592  0.88887235  0.36133044     0.30020
F770        F  0.17571865  0.90483754  0.34405145    -0.19380
H771        H  0.13053504  0.93811212  0.38238230     0.18380
H772        H  0.11263817  0.81071143  0.38837836     0.18390
F773        F  0.07036115  0.84530676  0.42896903    -0.19370
C774        C  0.40653915  0.89003599  0.13559756    -0.20810
C775        C  0.39843809  0.89567652  0.09780495    -0.08850
C776        C  0.37095866  0.87514747  0.08015510     0.30010
C777        C  0.34985876  0.85234958  0.10060625    -0.20810
C778        C  0.35447460  0.84924166  0.13949011    -0.08860
C779        C  0.38568209  0.86652086  0.15606660     0.30020
F780        F  0.39818044  0.85938196  0.19094045    -0.19380
H781        H  0.42920110  0.90382650  0.14945190     0.18380
H782        H  0.32978911  0.83714600  0.08523433     0.18390
F783        F  0.36446843  0.87644067  0.04287586    -0.19370
C784        C  0.42182398  0.91858281  0.91787261     0.42960
N785        N  0.43476878  0.96217384  0.95424096     0.01850
C786        C  0.09250930  0.56326102  0.95660486    -0.06030
H787        H  0.11281661  0.93158049  0.97851607     0.07340
C788        C  0.04118855  0.94021588  0.59571935    -0.06380
Co789      Co  0.00216982  0.99985958  0.93198596     0.74180
N790        N  0.06591945  0.96261877  0.96472995    -0.25560
Co791      Co  0.06589100  0.50152405  0.50512608     0.74070
C792        C  0.07396951  0.92278883  0.58411370     0.43060
N793        N  0.45527988  0.96489678  0.56508564     0.01460
N794        N  0.06250380  0.96436856  0.54674371     0.01570
N795        N  0.05088337  0.56000550  0.90869555    -0.46410
H796        H  0.47225941  0.92895441  0.88300414     0.07330
N797        N  0.04190877  0.96174512  0.93664314     0.01850
N798        N  0.06452849  0.54046372  0.54575346     0.01590
C799        C  0.08055250  0.58158489  0.58377360     0.43200
N800        N  0.43137362  0.96431223  0.53691983    -0.25020
C801        C  0.45607710  0.56495639  0.90611472    -0.05940
N802        N  0.41004244  0.93728070  0.94714594    -0.46120
N803        N  0.09044255  0.56419303  0.55303294    -0.46340
C804        C  0.42279301  0.58149584  0.91900223     0.42970
N805        N  0.04346102  0.53732060  0.93487695     0.01840
N806        N  0.43223807  0.54001964  0.53631548    -0.25040
N807        N  0.46136277  0.96176214  0.93043685    -0.25530
N808        N  0.45678246  0.54088192  0.56393020     0.01480
H809        H  0.38386710  0.56983728  0.52488138     0.07370
H810        H  0.03112134  0.57135102  0.62027401     0.07410
N811        N  0.06762549  0.53825274  0.96289789    -0.25580
N812        N  0.03616697  0.96539534  0.57085264    -0.25190
N813        N  0.43598850  0.53839861  0.95416372     0.01850
C814        C  0.07686576  0.91878345  0.92655486     0.43240
C815        C  0.40693239  0.93876569  0.54198535    -0.06440
N816        N  0.03847767  0.54079375  0.57028701    -0.25190
H817        H  0.02441461  0.93529273  0.61934920     0.07390
N818        N  0.04802730  0.93630278  0.91255746    -0.46410
H819        H  0.38333213  0.93344843  0.52396787     0.07250
C820        C  0.42018246  0.58198334  0.57710329     0.43080
C821        C  0.45569260  0.93502112  0.90650218    -0.05940
Co822      Co  0.43285540  0.00117607  0.99522889     0.73820
N823        N  0.44827831  0.94071482  0.59001401    -0.46130
C824        C  0.08108033  0.57754677  0.92083122     0.43340
N825        N  0.41213054  0.56330525  0.94863255    -0.46120
Co826      Co  0.49660740  0.50310790  0.56830861     0.73890
C827        C  0.04644319  0.56585435  0.59573423    -0.06450
C828        C  0.08929158  0.93658788  0.96061630    -0.06010
N829        N  0.46201485  0.53841214  0.92965494    -0.25540
N830        N  0.08597714  0.93928132  0.55381819    -0.46300
H831        H  0.11656252  0.56924328  0.97380542     0.07350
C832        C  0.40801525  0.56523370  0.54202354    -0.06420
Cl833      Cl  0.99940462  0.50159401  0.50017731    -0.49420
C834        C  0.41831885  0.92282423  0.57709942     0.43110
H835        H  0.47228690  0.57120166  0.88242395     0.07320
N836        N  0.45036413  0.56525511  0.58903681    -0.46140
C837        C  0.16533302  0.67637554  0.83453298    -0.01990
C838        C  0.16322606  0.82838281  0.83274330    -0.01990
C839        C  0.17189986  0.83281647  0.66808212    -0.01990
C840        C  0.17331387  0.67865346  0.67275459    -0.01990
C841        C  0.32467902  0.67292920  0.83372496    -0.01990
C842        C  0.33485768  0.67421492  0.67202639    -0.01990
C843        C  0.32630875  0.82663945  0.66063211    -0.01990
C844        C  0.32394934  0.82804556  0.82599010    -0.01990
C845        C  0.33474675  0.86069689  0.72495140    -0.20810
C846        C  0.33246617  0.82858564  0.70469881    -0.08850
C847        C  0.33684993  0.79846930  0.72708837     0.30010
C848        C  0.34615035  0.80096152  0.76473389    -0.20810
C849        C  0.33759522  0.83088283  0.78508534    -0.08860
C850        C  0.33538290  0.86193010  0.76431346     0.30020
F851        F  0.33141396  0.89312172  0.78154802    -0.19380
H852        H  0.33586381  0.88515732  0.71063173     0.18380
H853        H  0.35324124  0.77712629  0.77837813     0.18390
F854        F  0.32692388  0.76609410  0.71541735    -0.19370
C855        C  0.30214075  0.76413657  0.64236719    -0.20810
C856        C  0.33195727  0.78722163  0.64854346    -0.08850
C857        C  0.36662276  0.77060166  0.65164132     0.30010
C858        C  0.36887908  0.73364741  0.65511394    -0.20810
C859        C  0.33688634  0.71254775  0.65614980    -0.08860
C860        C  0.30599266  0.72846358  0.64028121     0.30020
F861        F  0.27948224  0.71034733  0.62119284    -0.19380
H862        H  0.27446913  0.77192284  0.64209368     0.18380
H863        H  0.39526778  0.72213659  0.66034857     0.18390
F864        F  0.39773702  0.78983601  0.65653010    -0.19370
C865        C  0.35746267  0.69722774  0.77563219    -0.20810
C866        C  0.33944196  0.66908012  0.79291631    -0.08850
C867        C  0.33820687  0.63777990  0.77190623     0.30010
C868        C  0.34153940  0.63870376  0.73285434    -0.20810
C869        C  0.34929451  0.67037559  0.71404510    -0.08860
C870        C  0.36308056  0.69778071  0.73738286     0.30020
F871        F  0.38212853  0.72524750  0.72486028    -0.19380
H872        H  0.36704650  0.71969918  0.79163341     0.18380
H873        H  0.33424693  0.61542361  0.71684456     0.18390
F874        F  0.32962913  0.60716005  0.78817707    -0.19370
C875        C  0.34422330  0.73350881  0.86691199    -0.20810
C876        C  0.32214007  0.71299706  0.84175437    -0.08850
C877        C  0.29710004  0.73107183  0.81919451     0.30010
C878        C  0.29814655  0.76642591  0.81688708    -0.20810
C879        C  0.32237572  0.78822563  0.83802872    -0.08860
C880        C  0.34351939  0.77076564  0.86599447     0.30020
F881        F  0.36333846  0.78866428  0.89244858    -0.19380
H882        H  0.36246943  0.72103920  0.88662825     0.18380
H883        H  0.28223900  0.77534059  0.79377340     0.18390
F884        F  0.27356963  0.71455729  0.79501170    -0.19370
C885        C  0.23580472  0.66808986  0.70729523    -0.20810
C886        C  0.21363945  0.66358463  0.67490669    -0.08850
C887        C  0.23243971  0.65040100  0.64366675     0.30010
C888        C  0.27115217  0.64665229  0.64503004    -0.20810
C889        C  0.29284180  0.66304398  0.67395153    -0.08860
C890        C  0.27289392  0.67443417  0.70478038     0.30020
F891        F  0.28757815  0.69677283  0.73056143    -0.19380
H892        H  0.22544479  0.67416977  0.73370295     0.18380
H893        H  0.28344199  0.63512728  0.62119504     0.18390
F894        F  0.21410017  0.64219723  0.61135577    -0.19370
C895        C  0.20183855  0.77414892  0.66883557    -0.20810
C896        C  0.16998565  0.79246011  0.66105516    -0.08850
C897        C  0.13836897  0.77200786  0.65159947     0.30010
C898        C  0.13965981  0.73519147  0.65267370    -0.20810
C899        C  0.17309752  0.71722109  0.65776308    -0.08860
C900        C  0.20454107  0.73888618  0.66193365     0.30020
F901        F  0.23753076  0.72650701  0.66975852    -0.19380
H902        H  0.22587884  0.78759510  0.68038066     0.18380
H903        H  0.11404050  0.72079173  0.65156684     0.18390
F904        F  0.10552857  0.78698019  0.64534823    -0.19370
C905        C  0.26999326  0.86963564  0.66764025    -0.20810
C906        C  0.28639526  0.84082904  0.64964833    -0.08850
C907        C  0.26387772  0.82768573  0.61935647     0.30010
C908        C  0.22578793  0.82867729  0.62175489    -0.20810
C909        C  0.20953851  0.84619791  0.65177919    -0.08860
C910        C  0.23160349  0.87372851  0.66582563     0.30020
F911        F  0.21649760  0.90384297  0.67757744    -0.19380
H912        H  0.28579625  0.88949769  0.68211806     0.18380
H913        H  0.21013211  0.81142459  0.60331652     0.18390
F914        F  0.27700630  0.80875434  0.59078044    -0.19370
C915        C  0.17150286  0.86491946  0.77314000    -0.20810
C916        C  0.15072420  0.83881850  0.79097661    -0.08850
C917        C  0.12864832  0.81861807  0.76552549     0.30010
C918        C  0.13477026  0.81925003  0.72692116    -0.20810
C919        C  0.16544670  0.83652134  0.71169383    -0.08860
C920        C  0.18422403  0.85919823  0.73735989     0.30020
F921        F  0.21848347  0.87092781  0.73315666    -0.19380
H922        H  0.18821925  0.88303030  0.78924886     0.18380
H923        H  0.11530182  0.80527963  0.70916393     0.18390
F924        F  0.09742001  0.80302410  0.77570073    -0.19370
C925        C  0.22400060  0.82107848  0.80317727    -0.20810
C926        C  0.20558361  0.83420991  0.83382186    -0.08850
C927        C  0.22771202  0.84872565  0.86327051     0.30010
C928        C  0.26602395  0.84614368  0.86155215    -0.20810
C929        C  0.28306166  0.83918432  0.82721742    -0.08860
C930        C  0.25899809  0.83194154  0.79650380     0.30020
F931        F  0.26996617  0.82632093  0.76136251    -0.19380
H932        H  0.20962563  0.80605744  0.78145553     0.18380
H933        H  0.28222093  0.84965490  0.88701570     0.18390
F934        F  0.21310881  0.85866473  0.89584752    -0.19370
C935        C  0.13127114  0.66027227  0.77025670    -0.20810
C936        C  0.15652947  0.68043848  0.79222210    -0.08850
C937        C  0.17601344  0.70668516  0.77380529     0.30010
C938        C  0.17367739  0.70965458  0.73602050    -0.20810
C939        C  0.15817421  0.68285360  0.71322103    -0.08860
C940        C  0.13216047  0.66116693  0.73090557     0.30020
F941        F  0.10693376  0.64177292  0.71130616    -0.19380
H942        H  0.11201968  0.64288943  0.78295477     0.18380
H943        H  0.19131382  0.72954679  0.72588294     0.18390
F944        F  0.20075585  0.72801966  0.79183640    -0.19370
C945        C  0.22652147  0.66578850  0.87172574    -0.20810
C946        C  0.20574490  0.66296140  0.83830729    -0.08850
C947        C  0.22395008  0.64717478  0.80828679     0.30010
C948        C  0.26198891  0.64620740  0.80794864    -0.20810
C949        C  0.28377982  0.65992326  0.83787410    -0.08860
C950        C  0.26489617  0.66737430  0.87106538     0.30020
F951        F  0.28341354  0.67920789  0.90209591    -0.19380
H952        H  0.21328166  0.67158493  0.89752181     0.18380
H953        H  0.27297864  0.63800565  0.78210366     0.18390
F954        F  0.20545112  0.63297249  0.77844505    -0.19370
C955        C  0.12661394  0.76850442  0.83631047    -0.20810
C956        C  0.15863701  0.78863037  0.84343120    -0.08850
C957        C  0.18545831  0.77124393  0.86567253     0.30010
C958        C  0.18688583  0.73527330  0.86652558    -0.20810
C959        C  0.15938431  0.71451569  0.84918655    -0.08860
C960        C  0.12675447  0.73202930  0.83908415     0.30020
F961        F  0.09623695  0.71371187  0.82814855    -0.19380
H962        H  0.10093052  0.78066932  0.83069743     0.18380
H963        H  0.21091820  0.72533992  0.87974552     0.18390
F964        F  0.21024169  0.78817446  0.88813770    -0.19370
C965        C  0.11797140  0.59133889  0.86612582    -0.20810
C966        C  0.10126939  0.60239665  0.89851813    -0.08850
C967        C  0.10446304  0.63713136  0.90987590     0.30010
C968        C  0.12381065  0.66082424  0.88875693    -0.20810
C969        C  0.14091181  0.65048865  0.85558212    -0.08860
C970        C  0.13830591  0.61477206  0.84532717     0.30020
F971        F  0.15588753  0.60202660  0.81567509    -0.19380
H972        H  0.11613453  0.56422247  0.85751299     0.18380
H973        H  0.12596661  0.68710860  0.89967966     0.18390
F974        F  0.08874132  0.64820900  0.94149417    -0.19370
C975        C  0.11237579  0.87028640  0.58790624    -0.20810
C976        C  0.09564184  0.89800321  0.60575613    -0.08850
C977        C  0.10126498  0.90295583  0.64409577     0.30010
C978        C  0.12449124  0.88123724  0.66402334    -0.20810
C979        C  0.14203144  0.85305015  0.64664071    -0.08860
C980        C  0.13487596  0.84773675  0.60797818     0.30020
F981        F  0.14913832  0.82067348  0.58922922    -0.19380
H982        H  0.10796211  0.86606381  0.55825326     0.18380
H983        H  0.12951311  0.88792881  0.69299032     0.18390
F984        F  0.08631172  0.93029778  0.66203208    -0.19370
C985        C  0.38830128  0.63233896  0.66058221    -0.20810
C986        C  0.35771731  0.65062902  0.64630291    -0.08850
C987        C  0.35131042  0.64873755  0.60718370     0.30010
C988        C  0.37146660  0.62641018  0.58483741    -0.20810
C989        C  0.39996059  0.60681432  0.60021459    -0.08860
C990        C  0.40878652  0.61083587  0.63821256     0.30020
F991        F  0.43706099  0.59359484  0.65431605    -0.19380
H992        H  0.39756035  0.63442521  0.68928246     0.18380
H993        H  0.36510205  0.62495884  0.55525534     0.18390
F994        F  0.32643874  0.66917180  0.58989087    -0.19370
C995        C  0.13322811  0.66277194  0.61364437    -0.20810
C996        C  0.14987395  0.65291364  0.64793880    -0.08850
C997        C  0.14702563  0.61727686  0.65743712     0.30010
C998        C  0.12384481  0.59438854  0.63693716    -0.20810
C999        C  0.10486542  0.60572218  0.60512377    -0.08860
C1000       C  0.11066841  0.63965348  0.59284539     0.30020
F1001       F  0.09426573  0.65054810  0.56078820    -0.19380
H1002       H  0.13783802  0.68810672  0.60194945     0.18380
H1003       H  0.12093778  0.56765157  0.64574082     0.18390
F1004       F  0.16578861  0.60479471  0.68742865    -0.19370
C1005       C  0.36235300  0.90568789  0.88677870    -0.20810
C1006       C  0.39798714  0.89543256  0.89456321    -0.08850
C1007       C  0.41076733  0.86511406  0.87749752     0.30010
C1008       C  0.38694721  0.84409629  0.85520270    -0.20810
C1009       C  0.34973341  0.85240238  0.85006777    -0.08860
C1010       C  0.33919747  0.88575958  0.86340355     0.30020
F1011       F  0.30809195  0.90135885  0.85159204    -0.19380
H1012       H  0.35294758  0.93047503  0.89716594     0.18380
H1013       H  0.39745631  0.82085190  0.84230333     0.18390
F1014       F  0.44598295  0.85554935  0.88283515    -0.19370
C1015       C  0.33803339  0.62635482  0.88378919    -0.20810
C1016       C  0.35118360  0.65255950  0.86007442    -0.08850
C1017       C  0.38975227  0.65604999  0.85806788     0.30010
C1018       C  0.41316313  0.63290212  0.87683241    -0.20810
C1019       C  0.39910621  0.60716633  0.89996194    -0.08860
C1020       C  0.36131246  0.60532828  0.90443069     0.30020
F1021       F  0.34618738  0.58168671  0.92735714    -0.19380
H1022       H  0.30947573  0.62040815  0.88628516     0.18380
H1023       H  0.44232905  0.63523361  0.87340104     0.18390
F1024       F  0.40510854  0.68061513  0.83654960    -0.19370
C1025       C  0.12610933  0.91015311  0.88256225    -0.20810
C1026       C  0.09916999  0.89579843  0.90437231    -0.08850
C1027       C  0.09525372  0.85975288  0.90637715     0.30010
C1028       C  0.11698281  0.83823069  0.88506023    -0.20810
C1029       C  0.14297302  0.85210794  0.86050897    -0.08860
C1030       C  0.14806535  0.88887290  0.86133036     0.30020
F1031       F  0.17571944  0.90483821  0.84405363    -0.19380
H1032       H  0.13053381  0.93811259  0.88238185     0.18380
H1033       H  0.11263903  0.81071199  0.88837977     0.18390
F1034       F  0.07036098  0.84530701  0.92896911    -0.19370
C1035       C  0.40654127  0.89003457  0.63559822    -0.20810
C1036       C  0.39843990  0.89567531  0.59780569    -0.08850
C1037       C  0.37096069  0.87514598  0.58015585     0.30010
C1038       C  0.34986110  0.85234781  0.60060699    -0.20810
C1039       C  0.35447698  0.84923995  0.63949085    -0.08860
C1040       C  0.38568451  0.86651914  0.65606723     0.30020
F1041       F  0.39818305  0.85938006  0.69094098    -0.19380
H1042       H  0.42920318  0.90382519  0.64945252     0.18380
H1043       H  0.32979154  0.83714412  0.58523507     0.18390
F1044       F  0.36447030  0.87643925  0.54287664    -0.19370
C1045       C  0.92182513  0.41858202  0.41787247     0.42960
N1046       N  0.93476986  0.46217311  0.45424086     0.01850
C1047       C  0.59251020  0.06325967  0.45660517    -0.06030
H1048       H  0.61281965  0.43158210  0.47851832     0.07340
C1049       C  0.54118815  0.44021710  0.09571998    -0.06380
Co1050     Co  0.50217172  0.49985923  0.43198748     0.74180
N1051       N  0.56592186  0.46261949  0.46473199    -0.25560
Co1052     Co  0.56588984  0.00152498  0.00512581     0.74070
C1053       C  0.57396907  0.42278992  0.08411436     0.43060
N1054       N  0.95527894  0.46489745  0.06508441     0.01460
N1055       N  0.56250327  0.46436943  0.04674408     0.01570
N1056       N  0.55088500  0.06000238  0.40869531    -0.46410
H1057       H  0.97226078  0.42895345  0.38300431     0.07330
N1058       N  0.54191111  0.46174520  0.43664523     0.01850
N1059       N  0.56452729  0.04046454  0.04575352     0.01590
C1060       C  0.58055115  0.08158593  0.08377356     0.43200
N1061       N  0.93137259  0.46431315  0.03691867    -0.25020
C1062       C  0.95607768  0.06495547  0.40611480    -0.05940
N1063       N  0.91004347  0.43728001  0.44714572    -0.46120
N1064       N  0.59044132  0.06419391  0.05303303    -0.46340
C1065       C  0.92279328  0.08149453  0.41900202     0.42970
N1066       N  0.54346278  0.03731781  0.43487710     0.01840
N1067       N  0.93223649  0.04001958  0.03631444    -0.25040
N1068       N  0.96136397  0.46176128  0.43043689    -0.25530
N1069       N  0.95678092  0.04088171  0.06392910     0.01480
H1070       H  0.88386545  0.06983711  0.02488053     0.07370
H1071       H  0.53111985  0.07135215  0.12027381     0.07410
N1072       N  0.56762682  0.03825101  0.46289841    -0.25580
N1073       N  0.53616647  0.46539638  0.07085306    -0.25190
N1074       N  0.93598898  0.03839737  0.45416361     0.01850
C1075       C  0.57686887  0.41878401  0.42655732     0.43240
C1076       C  0.90693138  0.43876652  0.04198404    -0.06440
N1077       N  0.53847638  0.04079467  0.07028699    -0.25190
H1078       H  0.52441438  0.43529419  0.11935002     0.07390
N1079       N  0.54803001  0.43630272  0.41255984    -0.46410
H1080       H  0.88333097  0.43344948  0.02396670     0.07250
C1081       C  0.92018080  0.08198297  0.07710247     0.43080
C1082       C  0.95569385  0.43502024  0.40650223    -0.05940
Co1083     Co  0.93285654  0.50117550  0.49522881     0.73820
N1084       N  0.94827745  0.44071526  0.09001255    -0.46130
C1085       C  0.58108146  0.07754449  0.42083100     0.43340
N1086       N  0.91213077  0.06330378  0.44863224    -0.46120
Co1087     Co  0.99660576  0.00310745  0.06830708     0.73890
C1088       C  0.54644179  0.06585540  0.09573410    -0.06450
C1089       C  0.58929450  0.43658897  0.46061853    -0.06010
N1090       N  0.96201554  0.03841126  0.42965501    -0.25540
N1091       N  0.58597664  0.43928224  0.05381871    -0.46300
H1092       H  0.61656299  0.06924281  0.47380603     0.07350
C1093       C  0.90801361  0.06523352  0.04202265    -0.06420
Cl1094     Cl  0.49940345  0.00159479  0.00017730    -0.49420
C1095       C  0.91831794  0.42282476  0.07709794     0.43110
H1096       H  0.97228755  0.07120086  0.38242412     0.07320
N1097       N  0.95036253  0.06525473  0.08903590    -0.46140
C1098       C  0.66533272  0.17637540  0.33453337    -0.01990
C1099       C  0.66322733  0.32838288  0.33274476    -0.01990
C1100       C  0.67189883  0.33281762  0.16808367    -0.01990
C1101       C  0.67331228  0.17865435  0.17275535    -0.01990
C1102       C  0.82467952  0.17292802  0.33372416    -0.01990
C1103       C  0.83485704  0.17421595  0.17202520    -0.01990
C1104       C  0.82630766  0.32664032  0.16063123    -0.01990
C1105       C  0.82395083  0.32804440  0.32598971    -0.01990
C1106       C  0.83474592  0.36069716  0.22495104    -0.20810
C1107       C  0.83246544  0.32858615  0.20469798    -0.08850
C1108       C  0.83684977  0.29846963  0.22708714     0.30010
C1109       C  0.84615114  0.30096152  0.26473251    -0.20810
C1110       C  0.83759588  0.33088243  0.28508462    -0.08860
C1111       C  0.83538252  0.36192988  0.26431314     0.30020
F1112       F  0.83141341  0.39312125  0.28154816    -0.19380
H1113       H  0.83586273  0.38515779  0.21063173     0.18380
H1114       H  0.85324267  0.27712619  0.27837627     0.18390
F1115       F  0.82692329  0.26609458  0.21541595    -0.19370
C1116       C  0.80214054  0.26413722  0.14236466    -0.20810
C1117       C  0.83195664  0.28722257  0.14854219    -0.08850
C1118       C  0.86662230  0.27060286  0.15164060     0.30010
C1119       C  0.86887893  0.23364861  0.15511326    -0.20810
C1120       C  0.83688631  0.21254872  0.15614840    -0.08860
C1121       C  0.80599304  0.22846422  0.14027856     0.30020
F1122       F  0.77948343  0.21034737  0.12118953    -0.19380
H1123       H  0.77446880  0.27192309  0.14209037     0.18380
H1124       H  0.89526764  0.22213799  0.16034840     0.18390
F1125       F  0.89773631  0.28983747  0.15653007    -0.19370
C1126       C  0.85746299  0.19722698  0.27563136    -0.20810
C1127       C  0.83944205  0.16907930  0.29291523    -0.08850
C1128       C  0.83820614  0.13777947  0.27190453     0.30010
C1129       C  0.84153805  0.13870401  0.23285259    -0.20810
C1130       C  0.84929365  0.17037600  0.21404388    -0.08860
C1131       C  0.86308040  0.19778056  0.23738197     0.30020
F1132       F  0.88212801  0.22524764  0.22485960    -0.19380
H1133       H  0.86704725  0.21969814  0.29163281     0.18380
H1134       H  0.83424504  0.11542422  0.21684243     0.18390
F1135       F  0.82962821  0.10715944  0.28817488    -0.19370
C1136       C  0.84422474  0.23350735  0.36691120    -0.20810
C1137       C  0.82214105  0.21299579  0.34175379    -0.08850
C1138       C  0.79710128  0.23107074  0.31919389     0.30010
C1139       C  0.79814882  0.26642464  0.31688584    -0.20810
C1140       C  0.82237782  0.28822430  0.33802773    -0.08860
C1141       C  0.84352123  0.27076422  0.36599361     0.30020
F1142       F  0.86334045  0.28866276  0.39244767    -0.19380
H1143       H  0.86247085  0.22103757  0.38662737     0.18380
H1144       H  0.78224207  0.27533910  0.29377151     0.18390
F1145       F  0.77357049  0.21455648  0.29501119    -0.19370
C1146       C  0.73580453  0.16809504  0.20729549    -0.20810
C1147       C  0.71363836  0.16358632  0.17490781    -0.08850
C1148       C  0.73243828  0.15040088  0.14366841     0.30010
C1149       C  0.77115085  0.14665277  0.14503106    -0.20810
C1150       C  0.79284091  0.16304634  0.17395098    -0.08860
C1151       C  0.77289370  0.17443916  0.20477911     0.30020
F1152       F  0.78757886  0.19677947  0.23055810    -0.19380
H1153       H  0.72544587  0.17417660  0.23370255     0.18380
H1154       H  0.78344031  0.13512621  0.12119684     0.18390
F1155       F  0.71409827  0.14219454  0.11135839    -0.19370
C1156       C  0.70183703  0.27414965  0.16883561    -0.20810
C1157       C  0.66998387  0.29246119  0.16105746    -0.08850
C1158       C  0.63836645  0.27200919  0.15160377     0.30010
C1159       C  0.63965712  0.23519273  0.15267735    -0.20810
C1160       C  0.67309501  0.21722216  0.15776426    -0.08860
C1161       C  0.70453879  0.23888705  0.16193240     0.30020
F1162       F  0.73752938  0.22650759  0.16975125    -0.19380
H1163       H  0.72587833  0.28759541  0.18037895     0.18380
H1164       H  0.61403778  0.22079302  0.15157165     0.18390
F1165       F  0.60552601  0.28698178  0.14535375    -0.19370
C1166       C  0.76999227  0.36963665  0.16764007    -0.20810
C1167       C  0.78639397  0.34082995  0.14964794    -0.08850
C1168       C  0.76387590  0.32768682  0.11935640     0.30010
C1169       C  0.72578611  0.32867841  0.12175546    -0.20810
C1170       C  0.70953730  0.34619888  0.15178020    -0.08860
C1171       C  0.73160245  0.37372960  0.16582623     0.30020
F1172       F  0.71649660  0.40384272  0.17758199    -0.19380
H1173       H  0.78579542  0.38949841  0.18211815     0.18380
H1174       H  0.71012982  0.31142604  0.10331715     0.18390
F1175       F  0.77700409  0.30875617  0.09077961    -0.19370
C1176       C  0.67150825  0.36491939  0.27314178    -0.20810
C1177       C  0.65072653  0.33882063  0.29097838    -0.08850
C1178       C  0.62864669  0.31862388  0.26552757     0.30010
C1179       C  0.63476773  0.31925557  0.22692293    -0.20810
C1180       C  0.66544619  0.33652328  0.21169525    -0.08860
C1181       C  0.68422790  0.35919669  0.23736141     0.30020
F1182       F  0.71848947  0.37092033  0.23315783    -0.19380
H1183       H  0.68822746  0.38302811  0.28925065     0.18380
H1184       H  0.61529697  0.30528812  0.20916566     0.18390
F1185       F  0.59741564  0.30303555  0.27570373    -0.19370
C1186       C  0.72400172  0.32107521  0.30317973    -0.20810
C1187       C  0.70558515  0.33420796  0.33382397    -0.08850
C1188       C  0.72771400  0.34872401  0.36327209     0.30010
C1189       C  0.76602590  0.34614196  0.36155317    -0.20810
C1190       C  0.78306300  0.33918251  0.32721810    -0.08860
C1191       C  0.75899887  0.33193879  0.29650522     0.30020
F1192       F  0.76996634  0.32631838  0.26136366    -0.19380
H1193       H  0.70962607  0.30605428  0.28145833     0.18380
H1194       H  0.78222329  0.34965363  0.38701639     0.18390
F1195       F  0.71311124  0.35866425  0.39584893    -0.19370
C1196       C  0.63127093  0.16027113  0.27025748    -0.20810
C1197       C  0.65652865  0.18043824  0.29222264    -0.08850
C1198       C  0.67601145  0.20668569  0.27380572     0.30010
C1199       C  0.67367428  0.20965556  0.23602098    -0.20810
C1200       C  0.65817247  0.18285376  0.21322170    -0.08860
C1201       C  0.63216001  0.16116580  0.23090638     0.30020
F1202       F  0.60693417  0.14177059  0.21130719    -0.19380
H1203       H  0.61202040  0.14288744  0.28295567     0.18380
H1204       H  0.69130943  0.22954876  0.22588288     0.18390
F1205       F  0.70075373  0.22802054  0.29183661    -0.19370
C1206       C  0.72652183  0.16578864  0.37172526    -0.20810
C1207       C  0.70574498  0.16296188  0.33830695    -0.08850
C1208       C  0.72395008  0.14717569  0.30828601     0.30010
C1209       C  0.76198887  0.14620736  0.30794801    -0.20810
C1210       C  0.78378013  0.15992253  0.33787356    -0.08860
C1211       C  0.76489656  0.16737400  0.37106480     0.30020
F1212       F  0.78341406  0.17920756  0.40209527    -0.19380
H1213       H  0.71328220  0.17158435  0.39752159     0.18380
H1214       H  0.77297834  0.13800581  0.28210286     0.18390
F1215       F  0.70545123  0.13297462  0.27844354    -0.19370
C1216       C  0.62661410  0.26850445  0.33630876    -0.20810
C1217       C  0.65863689  0.28863026  0.34343162    -0.08850
C1218       C  0.68545650  0.27124369  0.36567503     0.30010
C1219       C  0.68688414  0.23527298  0.36652773    -0.20810
C1220       C  0.65938341  0.21451549  0.34918718    -0.08860
C1221       C  0.62675407  0.23202933  0.33908329     0.30020
F1222       F  0.59623674  0.21371206  0.32814676    -0.19380
H1223       H  0.60093107  0.28066920  0.33069426     0.18380
H1224       H  0.71091544  0.22533936  0.37974955     0.18390
F1225       F  0.71023810  0.28817440  0.38814217    -0.19370
C1226       C  0.61797336  0.09133748  0.36612627    -0.20810
C1227       C  0.60127000  0.10239495  0.39851795    -0.08850
C1228       C  0.60446196  0.13712993  0.40987522     0.30010
C1229       C  0.62380930  0.16082329  0.38875647    -0.20810
C1230       C  0.64091198  0.15048791  0.35558245    -0.08860
C1231       C  0.63830757  0.11477115  0.34532788     0.30020
F1232       F  0.65589034  0.10202605  0.31567637    -0.19380
H1233       H  0.61613775  0.06422092  0.35751376     0.18380
H1234       H  0.62596374  0.18710788  0.39967872     0.18390
F1235       F  0.58873883  0.14820738  0.44149279    -0.19370
C1236       C  0.61237376  0.37028640  0.08790786    -0.20810
C1237       C  0.59564154  0.39800461  0.10575710    -0.08850
C1238       C  0.60126643  0.40295881  0.14409633     0.30010
C1239       C  0.62449259  0.38124025  0.16402409    -0.20810
C1240       C  0.64203058  0.35305144  0.14664223    -0.08860
C1241       C  0.63487370  0.34773673  0.10798010     0.30020
F1242       F  0.64913466  0.32067229  0.08923183    -0.19380
H1243       H  0.60795889  0.36606273  0.05825519     0.18380
H1244       H  0.62951624  0.38793300  0.19299056     0.18390
F1245       F  0.58631494  0.43030217  0.16203184    -0.19370
C1246       C  0.88830051  0.13233993  0.16058090    -0.20810
C1247       C  0.85771611  0.15062949  0.14630173    -0.08850
C1248       C  0.85130843  0.14873701  0.10718267     0.30010
C1249       C  0.87146448  0.12640938  0.08483654    -0.20810
C1250       C  0.89995899  0.10681413  0.10021364    -0.08860
C1251       C  0.90878552  0.11083650  0.13821139     0.30020
F1252       F  0.93706044  0.09359604  0.15431477    -0.19380
H1253       H  0.89756014  0.13442694  0.18928093     0.18380
H1254       H  0.86509936  0.12495735  0.05525461     0.18390
F1255       F  0.82643605  0.16917039  0.08988977    -0.19370
C1256       C  0.63322516  0.16277359  0.11364575    -0.20810
C1257       C  0.64987254  0.15291459  0.14793920    -0.08850
C1258       C  0.64702541  0.11727745  0.15743640     0.30010
C1259       C  0.62384476  0.09438911  0.13693622    -0.20810
C1260       C  0.60486404  0.10572324  0.10512383    -0.08860
C1261       C  0.61066547  0.13965519  0.09284666     0.30020
F1262       F  0.59426124  0.15055049  0.06079054    -0.19380
H1263       H  0.63783362  0.18810899  0.10195175     0.18380
H1264       H  0.62093878  0.06765178  0.14573901     0.18390
F1265       F  0.66578938  0.10479491  0.18742710    -0.19370
C1266       C  0.86235421  0.40568677  0.38677848    -0.20810
C1267       C  0.89798842  0.39543164  0.39456298    -0.08850
C1268       C  0.91076878  0.36511326  0.37749713     0.30010
C1269       C  0.88694876  0.34409540  0.35520222    -0.20810
C1270       C  0.84973491  0.35240127  0.35006738    -0.08860
C1271       C  0.83919881  0.38575840  0.36340325     0.30020
F1272       F  0.80809312  0.40135748  0.35159190    -0.19380
H1273       H  0.85294862  0.43047382  0.39716581     0.18380
H1274       H  0.89745799  0.32085112  0.34230275     0.18390
F1275       F  0.94598447  0.35554874  0.38283467    -0.19370
C1276       C  0.83803396  0.12635468  0.38378962    -0.20810
C1277       C  0.85118423  0.15255814  0.36007340    -0.08850
C1278       C  0.88975292  0.15604750  0.35806574     0.30010
C1279       C  0.91316358  0.13289967  0.37683057    -0.20810
C1280       C  0.89910662  0.10716518  0.39996167    -0.08860
C1281       C  0.86131298  0.10532844  0.40443162     0.30020
F1282       F  0.84618789  0.08168851  0.42735992    -0.19380
H1283       H  0.80947625  0.12040885  0.38628659     0.18380
H1284       H  0.94232943  0.13523020  0.37339821     0.18390
F1285       F  0.90510943  0.18061143  0.33654613    -0.19370
C1286       C  0.62611270  0.41015318  0.38256500    -0.20810
C1287       C  0.59917313  0.39579876  0.40437501    -0.08850
C1288       C  0.59525571  0.35975323  0.40637894     0.30010
C1289       C  0.61698413  0.33823083  0.38506149    -0.20810
C1290       C  0.64297492  0.35210793  0.36051079    -0.08860
C1291       C  0.64806788  0.38887277  0.36133239     0.30020
F1292       F  0.67572107  0.40483776  0.34405391    -0.19380
H1293       H  0.63053758  0.43811261  0.38238468     0.18380
H1294       H  0.61263914  0.31071209  0.38837973     0.18390
F1295       F  0.57036230  0.34530759  0.42897030    -0.19370
C1296       C  0.90654013  0.39003548  0.13559693    -0.20810
C1297       C  0.89843875  0.39567609  0.09780438    -0.08850
C1298       C  0.87095925  0.37514695  0.08015474     0.30010
C1299       C  0.84985956  0.35234898  0.10060606    -0.20810
C1300       C  0.85447564  0.34924110  0.13948991    -0.08860
C1301       C  0.88568326  0.36652029  0.15606614     0.30020
F1302       F  0.89818184  0.35938140  0.19093991    -0.19380
H1303       H  0.92920215  0.40382601  0.14945112     0.18380
H1304       H  0.82978983  0.33714536  0.08523430     0.18390
F1305       F  0.86446875  0.37644018  0.04287554    -0.19370
C1306       C  0.92182384  0.41858269  0.91787185     0.42960
N1307       N  0.93476867  0.46217377  0.95424016     0.01850
C1308       C  0.59250897  0.06326175  0.95660603    -0.06030
H1309       H  0.61281808  0.43158215  0.97851647     0.07340
C1310       C  0.54118862  0.44021634  0.59572087    -0.06380
Co1311     Co  0.50217056  0.49986030  0.93198644     0.74180
N1312       N  0.56592056  0.46262000  0.96473049    -0.25560
Co1313     Co  0.56589135  0.00152344  0.50512594     0.74070
C1314       C  0.57396969  0.42278942  0.58411530     0.43060
N1315       N  0.95527974  0.46489685  0.56508521     0.01460
N1316       N  0.56250401  0.46436916  0.54674538     0.01570
N1317       N  0.55088327  0.06000584  0.90869656    -0.46410
H1318       H  0.97225920  0.42895424  0.88300331     0.07330
N1319       N  0.54190969  0.46174601  0.93664383     0.01850
N1320       N  0.56452847  0.04046362  0.54575290     0.01590
C1321       C  0.58055221  0.08158511  0.58377284     0.43200
N1322       N  0.93137346  0.46431262  0.53691939    -0.25020
C1323       C  0.95607661  0.06495586  0.90611476    -0.05940
N1324       N  0.91004232  0.43728062  0.94714520    -0.46120
N1325       N  0.59044246  0.06419303  0.55303236    -0.46340
C1326       C  0.92279247  0.08149525  0.91900218     0.42970
N1327       N  0.54346087  0.03732106  0.93487806     0.01840
N1328       N  0.93223802  0.04001942  0.53631477    -0.25040
N1329       N  0.96136260  0.46176204  0.93043597    -0.25530
N1330       N  0.95678251  0.04088167  0.56392938     0.01480
H1331       H  0.88386692  0.06983693  0.52488088     0.07370
H1332       H  0.53112097  0.07135131  0.62027312     0.07410
N1333       N  0.56762523  0.03825339  0.96289910    -0.25580
N1334       N  0.53616706  0.46539582  0.57085418    -0.25190
N1335       N  0.93598764  0.03839769  0.95416340     0.01850
C1336       C  0.57686701  0.41878457  0.92655555     0.43240
C1337       C  0.90693233  0.43876587  0.54198458    -0.06440
N1338       N  0.53847758  0.04079378  0.57028637    -0.25190
H1339       H  0.52441456  0.43529305  0.61935060     0.07390
N1340       N  0.54802826  0.43630357  0.91255828    -0.46410
H1341       H  0.88333205  0.43344876  0.52396707     0.07250
C1342       C  0.92018236  0.08198295  0.57710271     0.43080
C1343       C  0.95569241  0.43502100  0.90650134    -0.05940
Co1344     Co  0.93285551  0.50117603  0.99522818     0.73820
N1345       N  0.94827828  0.44071450  0.59001318    -0.46130
C1346       C  0.58108011  0.07754728  0.92083225     0.43340
N1347       N  0.91212977  0.06330443  0.94863227    -0.46120
Co1348     Co  0.99660747  0.00310755  0.56830740     0.73890
C1349       C  0.54644290  0.06585456  0.59573341    -0.06450
C1350       C  0.58929292  0.43658930  0.96061681    -0.06010
N1351       N  0.96201415  0.03841142  0.92965478    -0.25540
N1352       N  0.58597738  0.43928197  0.55381987    -0.46300
H1353       H  0.61656215  0.06924410  0.97380662     0.07350
C1354       C  0.90801513  0.06523338  0.54202295    -0.06420
Cl1355     Cl  0.49940497  0.00159287  0.50017715    -0.49420
C1356       C  0.91831887  0.42282396  0.57709842     0.43110
H1357       H  0.97228658  0.07120127  0.88242416     0.07320
N1358       N  0.95036414  0.06525476  0.58903612    -0.46140
C1359       C  0.66533316  0.17637524  0.83453325    -0.01990
C1360       C  0.66322608  0.32838256  0.83274382    -0.01990
C1361       C  0.67190009  0.33281627  0.66808265    -0.01990
C1362       C  0.67331374  0.17865322  0.67275444    -0.01990
C1363       C  0.82467894  0.17292895  0.83372453    -0.01990
C1364       C  0.83485713  0.17421421  0.67202581    -0.01990
C1365       C  0.82630895  0.32663896  0.66063143    -0.01990
C1366       C  0.82394932  0.32804532  0.82598936    -0.01990
C1367       C  0.83474748  0.36069638  0.72495063    -0.20810
C1368       C  0.83246660  0.32858512  0.70469808    -0.08850
C1369       C  0.83684991  0.29846876  0.72708769     0.30010
C1370       C  0.84615005  0.30096092  0.76473325    -0.20810
C1371       C  0.83759518  0.33088236  0.78508459    -0.08860
C1372       C  0.83538336  0.36192963  0.76431268     0.30020
F1373       F  0.83141466  0.39312132  0.78154719    -0.19380
H1374       H  0.83586479  0.38515678  0.71063090     0.18380
H1375       H  0.85324062  0.27712564  0.77837753     0.18390
F1376       F  0.82692367  0.26609361  0.71541668    -0.19370
C1377       C  0.80214026  0.26413621  0.64236713    -0.20810
C1378       C  0.83195705  0.28722108  0.64854278    -0.08850
C1379       C  0.86662241  0.27060086  0.65164029     0.30010
C1380       C  0.86887848  0.23364661  0.65511302    -0.20810
C1381       C  0.83688563  0.21254711  0.65614929    -0.08860
C1382       C  0.80599180  0.22846319  0.64028127     0.30020
F1383       F  0.77948091  0.21034727  0.62119327    -0.19380
H1384       H  0.77446870  0.27192267  0.64209408     0.18380
H1385       H  0.89526715  0.22213564  0.66034741     0.18390
F1386       F  0.89773685  0.28983501  0.65652860    -0.19370
C1387       C  0.85746229  0.19722738  0.77563151    -0.20810
C1388       C  0.83944169  0.16907977  0.79291580    -0.08850
C1389       C  0.83820664  0.13777949  0.77190582     0.30010
C1390       C  0.84153918  0.13870322  0.73285391    -0.20810
C1391       C  0.84929411  0.17037503  0.71404451    -0.08860
C1392       C  0.86308008  0.19778026  0.73738215     0.30020
F1393       F  0.88212808  0.22524697  0.72485942    -0.19380
H1394       H  0.86704622  0.21969883  0.79163264     0.18380
H1395       H  0.83424678  0.11542298  0.71684424     0.18390
F1396       F  0.82962908  0.10715967  0.78817680    -0.19370
C1397       C  0.84422352  0.23350862  0.86691118    -0.20810
C1398       C  0.82214006  0.21299685  0.84175381    -0.08850
C1399       C  0.79709983  0.23107163  0.81919415     0.30010
C1400       C  0.79814612  0.26642576  0.81688684    -0.20810
C1401       C  0.82237560  0.28822545  0.83802817    -0.08860
C1402       C  0.84351960  0.27076545  0.86599366     0.30020
F1403       F  0.86333896  0.28866408  0.89244755    -0.19380
H1404       H  0.86246987  0.22103902  0.88662724     0.18380
H1405       H  0.78223812  0.27534060  0.79377352     0.18390
F1406       F  0.77356929  0.21455703  0.79501153    -0.19370
C1407       C  0.73580418  0.16808731  0.70729466    -0.20810
C1408       C  0.71363906  0.16358392  0.67490588    -0.08850
C1409       C  0.73243922  0.15040132  0.64366541     0.30010
C1410       C  0.77115163  0.14665225  0.64502866    -0.20810
C1411       C  0.79284131  0.16304287  0.67395082    -0.08860
C1412       C  0.77289335  0.17443179  0.70478020     0.30020
F1413       F  0.78757730  0.19676965  0.73056216    -0.19380
H1414       H  0.72544390  0.17416611  0.73370289     0.18380
H1415       H  0.78344142  0.13512809  0.62119312     0.18390
F1416       F  0.71409962  0.14219899  0.61135407    -0.19370
C1417       C  0.70183877  0.27414870  0.66883614    -0.20810
C1418       C  0.66998598  0.29245993  0.66105525    -0.08850
C1419       C  0.63836945  0.27200773  0.65159888     0.30010
C1420       C  0.63966021  0.23519136  0.65267316    -0.20810
C1421       C  0.67309779  0.21722089  0.65776307    -0.08860
C1422       C  0.70454138  0.23888591  0.66193444     0.30020
F1423       F  0.73753077  0.22650666  0.66976107    -0.19380
H1424       H  0.72587887  0.28759491  0.68038168     0.18380
H1425       H  0.61404085  0.22079170  0.65156597     0.18390
F1426       F  0.60552910  0.28698010  0.64534746    -0.19370
C1427       C  0.76999368  0.36963518  0.66764034    -0.20810
C1428       C  0.78639547  0.34082866  0.64964809    -0.08850
C1429       C  0.76387770  0.32768546  0.61935640     0.30010
C1430       C  0.72578797  0.32867702  0.62175519    -0.20810
C1431       C  0.70953876  0.34619762  0.65177967    -0.08860
C1432       C  0.73160394  0.37372804  0.66582612     0.30020
F1433       F  0.71649832  0.40384327  0.67757607    -0.19380
H1434       H  0.78579688  0.38949739  0.68211769     0.18380
H1435       H  0.71013207  0.31142430  0.60331692     0.18390
F1436       F  0.77700601  0.30875395  0.59078031    -0.19370
C1437       C  0.67150068  0.36491966  0.77314062    -0.20810
C1438       C  0.65072347  0.33881764  0.79097718    -0.08850
C1439       C  0.62864920  0.31861576  0.76552594     0.30010
C1440       C  0.63477144  0.31924787  0.72692174    -0.20810
C1441       C  0.66544693  0.33652077  0.71169448    -0.08860
C1442       C  0.68422233  0.35919929  0.73736047     0.30020
F1443       F  0.71848057  0.37093202  0.73315706    -0.19380
H1444       H  0.68821575  0.38303144  0.78924953     0.18380
H1445       H  0.61530388  0.30527630  0.70916459     0.18390
F1446       F  0.59742189  0.30301967  0.77570078    -0.19370
C1447       C  0.72400035  0.32107934  0.80317642    -0.20810
C1448       C  0.70558362  0.33421001  0.83382159    -0.08850
C1449       C  0.72771233  0.34872514  0.86327036     0.30010
C1450       C  0.76602420  0.34614318  0.86155165    -0.20810
C1451       C  0.78306169  0.33918421  0.82721675    -0.08860
C1452       C  0.75899800  0.33194205  0.79650305     0.30020
F1453       F  0.76996599  0.32632161  0.76136170    -0.19380
H1454       H  0.70962531  0.30605855  0.78145455     0.18380
H1455       H  0.78222134  0.34965398  0.88701517     0.18390
F1456       F  0.71310946  0.35866347  0.89584780    -0.19370
C1457       C  0.63127096  0.16027264  0.77025684    -0.20810
C1458       C  0.65652970  0.18043833  0.79222233    -0.08850
C1459       C  0.67601429  0.20668459  0.77380557     0.30010
C1460       C  0.67367870  0.20965387  0.73602074    -0.20810
C1461       C  0.65817456  0.18285346  0.71322112    -0.08860
C1462       C  0.63216028  0.16116738  0.73090566     0.30020
F1463       F  0.60693311  0.14177396  0.71130620    -0.19380
H1464       H  0.61201908  0.14289022  0.78295487     0.18380
H1465       H  0.69131585  0.22954552  0.72588338     0.18390
F1466       F  0.70075684  0.22801883  0.79183679    -0.19370
C1467       C  0.72652158  0.16578815  0.87172594    -0.20810
C1468       C  0.70574487  0.16296075  0.83830763    -0.08850
C1469       C  0.72394988  0.14717385  0.80828722     0.30010
C1470       C  0.76198873  0.14620676  0.80794875    -0.20810
C1471       C  0.78377975  0.15992304  0.83787394    -0.08860
C1472       C  0.76489624  0.16737434  0.87106526     0.30020
F1473       F  0.78341367  0.17920852  0.90209551    -0.19380
H1474       H  0.71328189  0.17158488  0.89752200     0.18380
H1475       H  0.77297837  0.13800475  0.78210383     0.18390
F1476       F  0.70545066  0.13297105  0.77844592    -0.19370
C1477       C  0.62661407  0.26850423  0.83631209    -0.20810
C1478       C  0.65863725  0.28863021  0.84343217    -0.08850
C1479       C  0.68545915  0.27124367  0.86567258     0.30010
C1480       C  0.68688668  0.23527304  0.86652538    -0.20810
C1481       C  0.65938482  0.21451546  0.84918684    -0.08860
C1482       C  0.62675481  0.23202906  0.83908518     0.30020
F1483       F  0.59623718  0.21371165  0.82814990    -0.19380
H1484       H  0.60093051  0.28066918  0.83069967     0.18380
H1485       H  0.71091948  0.22533972  0.87974450     0.18390
F1486       F  0.71024312  0.28817399  0.88813719    -0.19370
C1487       C  0.61797029  0.09133918  0.86612610    -0.20810
C1488       C  0.60126927  0.10239697  0.89851898    -0.08850
C1489       C  0.60446402  0.13713151  0.90987712     0.30010
C1490       C  0.62381164  0.16082421  0.88875792    -0.20810
C1491       C  0.64091175  0.15048860  0.85558252    -0.08860
C1492       C  0.63830490  0.11477213  0.84532726     0.30020
F1493       F  0.65588571  0.10202653  0.81567474    -0.19380
H1494       H  0.61613263  0.06422286  0.85751300     0.18380
H1495       H  0.62596851  0.18710841  0.89968096     0.18390
F1496       F  0.58874334  0.14820918  0.94149595    -0.19370
C1497       C  0.61237617  0.37028714  0.58790716    -0.20810
C1498       C  0.59564185  0.39800348  0.60575747    -0.08850
C1499       C  0.60126447  0.40295534  0.64409727     0.30010
C1500       C  0.62449073  0.38123656  0.66402458    -0.20810
C1501       C  0.64203156  0.35305008  0.64664148    -0.08860
C1502       C  0.63487635  0.34773730  0.60797882     0.30020
F1503       F  0.64913889  0.32067439  0.58922943    -0.19380
H1504       H  0.60796279  0.36606506  0.55825407     0.18380
H1505       H  0.62951205  0.38792756  0.69299176     0.18390
F1506       F  0.58631074  0.43029678  0.66203402    -0.19370
C1507       C  0.88830069  0.13233807  0.66058175    -0.20810
C1508       C  0.85771694  0.15062843  0.64630236    -0.08850
C1509       C  0.85131040  0.14873733  0.60718308     0.30010
C1510       C  0.87146666  0.12641000  0.58483679    -0.20810
C1511       C  0.89996039  0.10681384  0.60021404    -0.08860
C1512       C  0.90878598  0.11083501  0.63821211     0.30020
F1513       F  0.93706014  0.09359363  0.65431570    -0.19380
H1514       H  0.89755955  0.13442402  0.68928207     0.18380
H1515       H  0.86510240  0.12495896  0.55525465     0.18390
F1516       F  0.82643912  0.16917202  0.58989024    -0.19370
C1517       C  0.63322805  0.16277193  0.61364408    -0.20810
C1518       C  0.64987345  0.15291361  0.64793872    -0.08850
C1519       C  0.64702467  0.11727689  0.65743715     0.30010
C1520       C  0.62384392  0.09438867  0.63693696    -0.20810
C1521       C  0.60486508  0.10572231  0.60512323    -0.08860
C1522       C  0.61066843  0.13965357  0.59284488     0.30020
F1523       F  0.59426620  0.15054823  0.56078747    -0.19380
H1524       H  0.63783841  0.18810660  0.60194907     0.18380
H1525       H  0.62093657  0.06765174  0.64574066     0.18390
F1526       F  0.66578728  0.10479465  0.68742887    -0.19370
C1527       C  0.86235288  0.40568766  0.88677799    -0.20810
C1528       C  0.89798703  0.39543240  0.89456247    -0.08850
C1529       C  0.91076731  0.36511399  0.87749665     0.30010
C1530       C  0.88694724  0.34409621  0.85520178    -0.20810
C1531       C  0.84973342  0.35240221  0.85006693    -0.08860
C1532       C  0.83919741  0.38575936  0.86340278     0.30020
F1533       F  0.80809185  0.40135861  0.85159129    -0.19380
H1534       H  0.85294739  0.43047476  0.89716528     0.18380
H1535       H  0.89745640  0.32085188  0.84230233     0.18390
F1536       F  0.94598297  0.35554937  0.88283420    -0.19370
C1537       C  0.83803329  0.12635523  0.88378957    -0.20810
C1538       C  0.85118357  0.15255927  0.86007405    -0.08850
C1539       C  0.88975226  0.15604910  0.85806695     0.30010
C1540       C  0.91316295  0.13290117  0.87683164    -0.20810
C1541       C  0.89910592  0.10716603  0.89996194    -0.08860
C1542       C  0.86131224  0.10532877  0.90443130     0.30020
F1543       F  0.84618704  0.08168802  0.92735860    -0.19380
H1544       H  0.80947563  0.12040894  0.88628606     0.18380
H1545       H  0.94232884  0.13523207  0.87339976     0.18390
F1546       F  0.90510868  0.18061357  0.83654793    -0.19370
C1547       C  0.62611126  0.41015343  0.88256379    -0.20810
C1548       C  0.59917102  0.39579921  0.90437306    -0.08850
C1549       C  0.59525352  0.35975372  0.90637710     0.30010
C1550       C  0.61698232  0.33823121  0.88506020    -0.20810
C1551       C  0.64297338  0.35210803  0.86050958    -0.08860
C1552       C  0.64806691  0.38887289  0.86133183     0.30020
F1553       F  0.67572214  0.40483771  0.84405637    -0.19380
H1554       H  0.63053674  0.43811280  0.88238408     0.18380
H1555       H  0.61263767  0.31071260  0.88837934     0.18390
F1556       F  0.57035992  0.34530820  0.92896835    -0.19370
C1557       C  0.90654165  0.39003373  0.63559701    -0.20810
C1558       C  0.89843990  0.39567491  0.59780462    -0.08850
C1559       C  0.87096027  0.37514597  0.58015494     0.30010
C1560       C  0.84986075  0.35234772  0.60060612    -0.20810
C1561       C  0.85447710  0.34923941  0.63948991    -0.08860
C1562       C  0.88568494  0.36651828  0.65606606     0.30020
F1563       F  0.89818370  0.35937892  0.69093966    -0.19380
H1564       H  0.92920381  0.40382406  0.64945119     0.18380
H1565       H  0.82979081  0.33714442  0.58523430     0.18390
F1566       F  0.86446935  0.37643974  0.54287583    -0.19370
C1567       C  0.92182548  0.91858263  0.41787157     0.42960
N1568       N  0.93477052  0.96217355  0.45424004     0.01850
C1569       C  0.59251136  0.56326087  0.45660559    -0.06030
H1570       H  0.61281969  0.93158098  0.47851982     0.07340
C1571       C  0.54118638  0.94021669  0.09572090    -0.06380
Co1572     Co  0.50217152  0.99985649  0.43198742     0.74180
N1573       N  0.56592157  0.96261775  0.46473297    -0.25560
Co1574     Co  0.56589139  0.50152489  0.00512445     0.74070
C1575       C  0.57396733  0.92278963  0.08411518     0.43060
N1576       N  0.95527913  0.96489708  0.06508384     0.01460
N1577       N  0.56250165  0.96436946  0.04674533     0.01570
N1578       N  0.55088555  0.56000496  0.40869619    -0.46410
H1579       H  0.97226070  0.92895430  0.38300286     0.07330
N1580       N  0.54191080  0.96174275  0.43664627     0.01850
N1581       N  0.56452951  0.54046449  0.04575216     0.01590
C1582       C  0.58055359  0.58158580  0.08377214     0.43200
N1583       N  0.93137274  0.96431301  0.03691813    -0.25020
C1584       C  0.95607766  0.56495486  0.40611535    -0.05940
N1585       N  0.91004411  0.93728044  0.44714506    -0.46120
N1586       N  0.59044369  0.56419373  0.05303160    -0.46340
C1587       C  0.92279334  0.58149426  0.41900231     0.42970
N1588       N  0.54346309  0.53732030  0.43487780     0.01840
N1589       N  0.93223610  0.54001979  0.03631475    -0.25040
N1590       N  0.96136436  0.96176194  0.43043574    -0.25530
N1591       N  0.95678059  0.54088209  0.06392936     0.01480
H1592       H  0.88386518  0.56983748  0.02488068     0.07370
H1593       H  0.53112230  0.57135237  0.12027244     0.07410
N1594       N  0.56762748  0.53825268  0.46289881    -0.25580
N1595       N  0.53616477  0.96539619  0.07085422    -0.25190
N1596       N  0.93598842  0.53839702  0.45416410     0.01850
C1597       C  0.57686886  0.91878170  0.42655916     0.43240
C1598       C  0.90693128  0.93876663  0.04198352    -0.06440
N1599       N  0.53847869  0.54079480  0.07028569    -0.25190
H1600       H  0.52441245  0.93529345  0.11935074     0.07390
N1601       N  0.54802985  0.93629994  0.41256139    -0.46410
H1602       H  0.88333075  0.93344986  0.02396625     0.07250
C1603       C  0.92018071  0.58198356  0.07710247     0.43080
C1604       C  0.95569402  0.93502098  0.40650100    -0.05940
Co1605     Co  0.93285743  0.00117570  0.49522814     0.73820
N1606       N  0.94827741  0.94071499  0.09001200    -0.46130
C1607       C  0.58108253  0.57754627  0.42083176     0.43340
N1608       N  0.91213048  0.56330364  0.44863251    -0.46120
Co1609     Co  0.99660542  0.50310802  0.06830761     0.73890
C1610       C  0.54644421  0.56585549  0.09573275    -0.06450
C1611       C  0.58929444  0.93658736  0.46062000    -0.06010
N1612       N  0.96201512  0.53841063  0.42965567    -0.25540
N1613       N  0.58597500  0.93928223  0.05381977    -0.46300
H1614       H  0.61656457  0.56924320  0.47380614     0.07350
C1615       C  0.90801333  0.56523386  0.04202282    -0.06420
Cl1616     Cl  0.49940500  0.50159522  0.00017623    -0.49420
C1617       C  0.91831771  0.92282479  0.07709740     0.43110
H1618       H  0.97228783  0.57120014  0.38242486     0.07320
N1619       N  0.95036240  0.56525533  0.08903594    -0.46140
C1620       C  0.66533385  0.67637577  0.33453293    -0.01990
C1621       C  0.66322735  0.82838314  0.33274438    -0.01990
C1622       C  0.67189823  0.83281779  0.16808345    -0.01990
C1623       C  0.67331291  0.67865464  0.17275501    -0.01990
C1624       C  0.82468056  0.67292861  0.33372412    -0.01990
C1625       C  0.83485758  0.67421686  0.17202516    -0.01990
C1626       C  0.82630693  0.82664100  0.16063090    -0.01990
C1627       C  0.82395078  0.82804499  0.32598940    -0.01990
C1628       C  0.83474523  0.86069781  0.22495070    -0.20810
C1629       C  0.83246475  0.82858682  0.20469764    -0.08850
C1630       C  0.83684922  0.79847028  0.22708674     0.30010
C1631       C  0.84615082  0.80096214  0.26473207    -0.20810
C1632       C  0.83759568  0.83088304  0.28508426    -0.08860
C1633       C  0.83538210  0.86193051  0.26431280     0.30020
F1634       F  0.83141296  0.89312185  0.28154788    -0.19380
H1635       H  0.83586187  0.88515845  0.21063141     0.18380
H1636       H  0.85324243  0.77712680  0.27837577     0.18390
F1637       F  0.82692266  0.76609524  0.21541558    -0.19370
C1638       C  0.80214035  0.76413778  0.14236417    -0.20810
C1639       C  0.83195624  0.78722333  0.14854183    -0.08850
C1640       C  0.86662204  0.77060389  0.15164036     0.30010
C1641       C  0.86887897  0.73364968  0.15511311    -0.20810
C1642       C  0.83688652  0.71254959  0.15614827    -0.08860
C1643       C  0.80599313  0.72846481  0.14027828     0.30020
F1644       F  0.77948361  0.71034769  0.12118940    -0.19380
H1645       H  0.77446855  0.77192347  0.14208968     0.18380
H1646       H  0.89526777  0.72213927  0.16034832     0.18390
F1647       F  0.89773590  0.78983870  0.15652988    -0.19370
C1648       C  0.85746392  0.69722779  0.27563136    -0.20810
C1649       C  0.83944317  0.66907998  0.29291523    -0.08850
C1650       C  0.83820734  0.63778022  0.27190444     0.30010
C1651       C  0.84153900  0.63870489  0.23285249    -0.20810
C1652       C  0.84929431  0.67037698  0.21404382    -0.08860
C1653       C  0.86308099  0.69778156  0.23738192     0.30020
F1654       F  0.88212807  0.72524896  0.22485949    -0.19380
H1655       H  0.86704815  0.71969894  0.29163285     0.18380
H1656       H  0.83424606  0.61542509  0.21684229     0.18390
F1657       F  0.82962965  0.60716010  0.28817476    -0.19370
C1658       C  0.84422545  0.73350812  0.36691104    -0.20810
C1659       C  0.82214187  0.71299640  0.34175370    -0.08850
C1660       C  0.79710190  0.73107119  0.31919383     0.30010
C1661       C  0.79814904  0.76642510  0.31688584    -0.20810
C1662       C  0.82237800  0.78822491  0.33802755    -0.08860
C1663       C  0.84352162  0.77076498  0.36599341     0.30020
F1664       F  0.86334069  0.78866369  0.39244745    -0.19380
H1665       H  0.86247170  0.72103847  0.38662716     0.18380
H1666       H  0.78224203  0.77533945  0.29377165     0.18390
F1667       F  0.77357119  0.71455680  0.29501114    -0.19370
C1668       C  0.73580516  0.66809589  0.20729541    -0.20810
C1669       C  0.71363908  0.66358684  0.17490769    -0.08850
C1670       C  0.73243909  0.65040114  0.14366848     0.30010
C1671       C  0.77115165  0.64665310  0.14503128    -0.20810
C1672       C  0.79284157  0.66304703  0.17395105    -0.08860
C1673       C  0.77289432  0.67444001  0.20477906     0.30020
F1674       F  0.78757946  0.69678043  0.23055796    -0.19380
H1675       H  0.72544649  0.67417761  0.23370231     0.18380
H1676       H  0.78344117  0.63512631  0.12119723     0.18390
F1677       F  0.71409923  0.64219448  0.11135846    -0.19370
C1678       C  0.70183692  0.77415009  0.16883534    -0.20810
C1679       C  0.66998357  0.79246138  0.16105727    -0.08850
C1680       C  0.63836632  0.77200916  0.15160355     0.30010
C1681       C  0.63965732  0.73519272  0.15267697    -0.20810
C1682       C  0.67309539  0.71722242  0.15776390    -0.08860
C1683       C  0.70453898  0.73888753  0.16193208     0.30020
F1684       F  0.73752963  0.72650828  0.16975107    -0.19380
H1685       H  0.72587811  0.78759603  0.18037866     0.18380
H1686       H  0.61403812  0.72079279  0.15157117     0.18390
F1687       F  0.60552572  0.78698149  0.14535363    -0.19370
C1688       C  0.76999139  0.86963715  0.16763970    -0.20810
C1689       C  0.78639316  0.84083047  0.14964761    -0.08850
C1690       C  0.76387513  0.82768727  0.11935605     0.30010
C1691       C  0.72578534  0.82867889  0.12175502    -0.20810
C1692       C  0.70953648  0.84619934  0.15177972    -0.08860
C1693       C  0.73160156  0.87373007  0.16582580     0.30020
F1694       F  0.71649563  0.90384303  0.17758192    -0.19380
H1695       H  0.78579449  0.88949886  0.18211791     0.18380
H1696       H  0.71012909  0.81142646  0.10331671     0.18390
F1697       F  0.77700336  0.80875663  0.09077928    -0.19370
C1698       C  0.67150816  0.86491974  0.27314143    -0.20810
C1699       C  0.65072632  0.83882113  0.29097815    -0.08850
C1700       C  0.62864624  0.81862449  0.26552745     0.30010
C1701       C  0.63476735  0.81925586  0.22692282    -0.20810
C1702       C  0.66544586  0.83652340  0.21169506    -0.08860
C1703       C  0.68422775  0.85919679  0.23736109     0.30020
F1704       F  0.71848948  0.87091999  0.23315749    -0.19380
H1705       H  0.68822752  0.88302841  0.28925024     0.18380
H1706       H  0.61529651  0.80528845  0.20916557     0.18390
F1707       F  0.59741479  0.80303694  0.27570370    -0.19370
C1708       C  0.72400166  0.82107563  0.30317941    -0.20810
C1709       C  0.70558510  0.83420848  0.33382358    -0.08850
C1710       C  0.72771390  0.84872469  0.36327164     0.30010
C1711       C  0.76602580  0.84614260  0.36155278    -0.20810
C1712       C  0.78306292  0.83918300  0.32721776    -0.08860
C1713       C  0.75899880  0.83193913  0.29650489     0.30020
F1714       F  0.76996625  0.82631849  0.26136336    -0.19380
H1715       H  0.70962599  0.80605463  0.28145806     0.18380
H1716       H  0.78222317  0.84965435  0.38701600     0.18390
F1717       F  0.71311113  0.85866506  0.39584842    -0.19370
C1718       C  0.63127205  0.66027090  0.27025719    -0.20810
C1719       C  0.65652963  0.68043830  0.29222220    -0.08850
C1720       C  0.67601203  0.70668594  0.27380517     0.30010
C1721       C  0.67367436  0.70965597  0.23602049    -0.20810
C1722       C  0.65817293  0.68285394  0.21322129    -0.08860
C1723       C  0.63216094  0.66116556  0.23090607     0.30020
F1724       F  0.60693535  0.64176998  0.21130697    -0.19380
H1725       H  0.61202180  0.64288699  0.28295549     0.18380
H1726       H  0.69130906  0.72954951  0.22588236     0.18390
F1727       F  0.70075434  0.72802094  0.29183584    -0.19370
C1728       C  0.72652284  0.66578927  0.37172493    -0.20810
C1729       C  0.70574611  0.66296240  0.33830657    -0.08850
C1730       C  0.72395126  0.64717611  0.30828573     0.30010
C1731       C  0.76199004  0.64620773  0.30794786    -0.20810
C1732       C  0.78378119  0.65992304  0.33787341    -0.08860
C1733       C  0.76489755  0.66737462  0.37106457     0.30020
F1734       F  0.78341496  0.67920828  0.40209506    -0.19380
H1735       H  0.71328314  0.67158507  0.39752120     0.18380
H1736       H  0.77297957  0.63800606  0.28210278     0.18390
F1737       F  0.70545246  0.63297494  0.27844327    -0.19370
C1738       C  0.62661470  0.76850447  0.33630781    -0.20810
C1739       C  0.65863732  0.78863046  0.34343082    -0.08850
C1740       C  0.68545692  0.77124415  0.36567447     0.30010
C1741       C  0.68688495  0.73527349  0.36652705    -0.20810
C1742       C  0.65938440  0.71451585  0.34918646    -0.08860
C1743       C  0.62675491  0.73202942  0.33908250     0.30020
F1744       F  0.59623770  0.71371192  0.32814605    -0.19380
H1745       H  0.60093157  0.78066903  0.33069335     0.18380
H1746       H  0.71091632  0.72534003  0.37974893     0.18390
F1747       F  0.71023805  0.78817509  0.38814195    -0.19370
C1748       C  0.61797472  0.59133830  0.36612704    -0.20810
C1749       C  0.60127150  0.60239621  0.39851863    -0.08850
C1750       C  0.60446370  0.63713122  0.40987561     0.30010
C1751       C  0.62381098  0.66082426  0.38875653    -0.20810
C1752       C  0.64091332  0.65048853  0.35558243    -0.08860
C1753       C  0.63830889  0.61477169  0.34532829     0.30020
F1754       F  0.65589159  0.60202628  0.31567686    -0.19380
H1755       H  0.61613895  0.56422167  0.35751483     0.18380
H1756       H  0.62596558  0.68710891  0.39967859     0.18390
F1757       F  0.58874082  0.64820902  0.44149319    -0.19370
C1758       C  0.61237238  0.87028638  0.08790817    -0.20810
C1759       C  0.59563980  0.89800420  0.10575771    -0.08850
C1760       C  0.60126457  0.90295810  0.14409697     0.30010
C1761       C  0.62449114  0.88123974  0.16402447    -0.20810
C1762       C  0.64202962  0.85305138  0.14664228    -0.08860
C1763       C  0.63487268  0.84773685  0.10798015     0.30020
F1764       F  0.64913394  0.82067272  0.08923162    -0.19380
H1765       H  0.60795756  0.86606293  0.05825545     0.18380
H1766       H  0.62951471  0.88793235  0.19299098     0.18390
F1767       F  0.58631263  0.93030104  0.16203279    -0.19370
C1768       C  0.88830125  0.63234120  0.16058070    -0.20810
C1769       C  0.85771667  0.65063053  0.14630163    -0.08850
C1770       C  0.85130874  0.64873787  0.10718262     0.30010
C1771       C  0.87146460  0.62641010  0.08483650    -0.20810
C1772       C  0.89995919  0.60681495  0.10021355    -0.08860
C1773       C  0.90878609  0.61083764  0.13821119     0.30020
F1774       F  0.93706117  0.59359736  0.15431450    -0.19380
H1775       H  0.89756111  0.63442845  0.18928065     0.18380
H1776       H  0.86509925  0.62495785  0.05525462     0.18390
F1777       F  0.82643620  0.66917109  0.08988975    -0.19370
C1778       C  0.63322658  0.66277373  0.11364499    -0.20810
C1779       C  0.64987354  0.65291480  0.14793868    -0.08850
C1780       C  0.64702666  0.61727762  0.15743576     0.30010
C1781       C  0.62384662  0.59438910  0.13693515    -0.20810
C1782       C  0.60486636  0.60572311  0.10512245    -0.08860
C1783       C  0.61066754  0.63965513  0.09284545     0.30020
F1784       F  0.59426364  0.65055034  0.06078913    -0.19380
H1785       H  0.63783492  0.68810920  0.10195113     0.18380
H1786       H  0.62094073  0.56765174  0.14573787     0.18390
F1787       F  0.66579040  0.60479517  0.18742666    -0.19370
C1788       C  0.86235432  0.90568737  0.38677805    -0.20810
C1789       C  0.89798859  0.89543226  0.39456227    -0.08850
C1790       C  0.91076887  0.86511391  0.37749633     0.30010
C1791       C  0.88694876  0.84409608  0.35520153    -0.20810
C1792       C  0.84973488  0.85240192  0.35006693    -0.08860
C1793       C  0.83919880  0.88575900  0.36340294     0.30020
F1794       F  0.80809302  0.90135806  0.35159179    -0.19380
H1795       H  0.85294878  0.93047440  0.39716548     0.18380
H1796       H  0.89745794  0.82085181  0.34230198     0.18390
F1797       F  0.94598459  0.85554939  0.38283367    -0.19370
C1798       C  0.83803462  0.62635518  0.38378962    -0.20810
C1799       C  0.85118512  0.65255862  0.36007349    -0.08850
C1800       C  0.88975385  0.65604770  0.35806593     0.30010
C1801       C  0.91316429  0.63289963  0.37683081    -0.20810
C1802       C  0.89910704  0.60716517  0.39996182    -0.08860
C1803       C  0.86131339  0.60532872  0.40443163     0.30020
F1804       F  0.84618800  0.58168881  0.42735975    -0.19380
H1805       H  0.80947689  0.62040947  0.38628652     0.18380
H1806       H  0.94233016  0.63522996  0.37339854     0.18390
F1807       F  0.90511056  0.68061154  0.33654635    -0.19370
C1808       C  0.62611223  0.91015223  0.38256616    -0.20810
C1809       C  0.59917354  0.89579708  0.40437675    -0.08850
C1810       C  0.59525668  0.85975152  0.40638028     0.30010
C1811       C  0.61698495  0.83822974  0.38506205    -0.20810
C1812       C  0.64297488  0.85210755  0.36051085    -0.08860
C1813       C  0.64806714  0.88887244  0.36133262     0.30020
F1814       F  0.67571930  0.90483807  0.34405315    -0.19380
H1815       H  0.63053645  0.93811175  0.38238591     0.18380
H1816       H  0.61264046  0.81071091  0.38838008     0.18390
F1817       F  0.57036386  0.84530525  0.42897187    -0.19370
C1818       C  0.90653952  0.89003593  0.13559650    -0.20810
C1819       C  0.89843819  0.89567645  0.09780394    -0.08850
C1820       C  0.87095848  0.87514755  0.08015437     0.30010
C1821       C  0.84985863  0.85234979  0.10060575    -0.20810
C1822       C  0.85447479  0.84924188  0.13948959    -0.08860
C1823       C  0.88568249  0.86652096  0.15606578     0.30020
F1824       F  0.89818106  0.85938209  0.19093956    -0.19380
H1825       H  0.92920166  0.90382633  0.14945064     0.18380
H1826       H  0.82978877  0.83714630  0.08523402     0.18390
F1827       F  0.86446793  0.87644076  0.04287517    -0.19370
C1828       C  0.92182400  0.91858275  0.91787161     0.42960
N1829       N  0.93476889  0.96217386  0.95423974     0.01850
C1830       C  0.59251001  0.56326194  0.95660488    -0.06030
H1831       H  0.61281765  0.93158277  0.97851773     0.07340
C1832       C  0.54118747  0.94021603  0.59572152    -0.06380
Co1833     Co  0.50216960  0.99985999  0.93198753     0.74180
N1834       N  0.56591971  0.96262011  0.96473180    -0.25560
Co1835     Co  0.56589209  0.50152452  0.50512572     0.74070
C1836       C  0.57396854  0.92278904  0.58411605     0.43060
N1837       N  0.95528092  0.96489695  0.56508436     0.01460
N1838       N  0.56250305  0.96436865  0.54674601     0.01570
N1839       N  0.55088398  0.56000629  0.90869567    -0.46410
H1840       H  0.97225924  0.92895420  0.88300286     0.07330
N1841       N  0.54190898  0.96174599  0.93664503     0.01850
N1842       N  0.56452955  0.54046425  0.54575323     0.01590
C1843       C  0.58055321  0.58158573  0.58377322     0.43200
N1844       N  0.93137451  0.96431271  0.53691867    -0.25020
C1845       C  0.95607628  0.56495585  0.90611511    -0.05940
N1846       N  0.91004255  0.93728068  0.94714495    -0.46120
N1847       N  0.59044343  0.56419378  0.55303264    -0.46340
C1848       C  0.92279214  0.58149526  0.91900245     0.42970
N1849       N  0.54346201  0.53732111  0.93487688     0.01840
N1850       N  0.93223701  0.54001938  0.53631534    -0.25040
N1851       N  0.96136274  0.96176210  0.93043547    -0.25530
N1852       N  0.95678135  0.54088155  0.56393010     0.01480
H1853       H  0.88386639  0.56983749  0.52488098     0.07370
H1854       H  0.53112208  0.57135168  0.62027359     0.07410
N1855       N  0.56762655  0.53825331  0.96289777    -0.25580
N1856       N  0.53616599  0.96539542  0.57085469    -0.25190
N1857       N  0.93598718  0.53839766  0.95416368     0.01850
C1858       C  0.57686689  0.91878503  0.92655660     0.43240
C1859       C  0.90693321  0.93876617  0.54198415    -0.06440
N1860       N  0.53847873  0.54079424  0.57028678    -0.25190
H1861       H  0.52441332  0.93529280  0.61935119     0.07390
N1862       N  0.54802795  0.93630376  0.91255936    -0.46410
H1863       H  0.88333272  0.93344922  0.52396688     0.07250
C1864       C  0.92018173  0.58198334  0.57710294     0.43080
C1865       C  0.95569249  0.93502104  0.90650091    -0.05940
Co1866     Co  0.93285585  0.00117598  0.99522778     0.73820
N1867       N  0.94827936  0.94071480  0.59001257    -0.46130
C1868       C  0.58108070  0.57754784  0.92083144     0.43340
N1869       N  0.91212934  0.56330443  0.94863251    -0.46120
Co1870     Co  0.99660619  0.50310746  0.56830867     0.73890
C1871       C  0.54644403  0.56585498  0.59573387    -0.06450
C1872       C  0.58929246  0.93658972  0.96061803    -0.06010
N1873       N  0.96201375  0.53841140  0.92965512    -0.25540
N1874       N  0.58597634  0.93928147  0.55382063    -0.46300
H1875       H  0.61656315  0.56924443  0.97380548     0.07350
C1876       C  0.90801441  0.56523367  0.54202324    -0.06420
Cl1877     Cl  0.49940566  0.50159428  0.50017723    -0.49420
C1878       C  0.91831974  0.92282438  0.57709808     0.43110
H1879       H  0.97228637  0.57120132  0.88242461     0.07320
N1880       N  0.95036322  0.56525489  0.58903658    -0.46140
C1881       C  0.66533343  0.67637632  0.83453327    -0.01990
C1882       C  0.66322584  0.82838367  0.83274396    -0.01990
C1883       C  0.67190049  0.83281738  0.66808302    -0.01990
C1884       C  0.67331450  0.67865436  0.67275439    -0.01990
C1885       C  0.82467917  0.67292954  0.83372490    -0.01990
C1886       C  0.83485732  0.67421516  0.67202602    -0.01990
C1887       C  0.82630916  0.82664010  0.66063162    -0.01990
C1888       C  0.82394911  0.82804582  0.82598956    -0.01990
C1889       C  0.83474746  0.86069728  0.72495096    -0.20810
C1890       C  0.83246670  0.82858610  0.70469829    -0.08850
C1891       C  0.83684992  0.79846965  0.72708782     0.30010
C1892       C  0.84614993  0.80096169  0.76473340    -0.20810
C1893       C  0.83759491  0.83088302  0.78508480    -0.08860
C1894       C  0.83538307  0.86193037  0.76431300     0.30020
F1895       F  0.83141422  0.89312199  0.78154760    -0.19380
H1896       H  0.83586485  0.88515773  0.71063135     0.18380
H1897       H  0.85324049  0.77712637  0.77837761     0.18390
F1898       F  0.82692362  0.76609453  0.71541677    -0.19370
C1899       C  0.80214019  0.76413743  0.64236775    -0.20810
C1900       C  0.83195711  0.78722221  0.64854297    -0.08850
C1901       C  0.86662241  0.77060189  0.65164037     0.30010
C1902       C  0.86887840  0.73364764  0.65511322    -0.20810
C1903       C  0.83688552  0.71254817  0.65614969    -0.08860
C1904       C  0.80599152  0.72846439  0.64028209     0.30020
F1905       F  0.77948028  0.71034873  0.62119440    -0.19380
H1906       H  0.77446867  0.77192401  0.64209490     0.18380
H1907       H  0.89526706  0.72213663  0.66034750     0.18390
F1908       F  0.89773692  0.78983597  0.65652846    -0.19370
C1909       C  0.85746252  0.69722812  0.77563186    -0.20810
C1910       C  0.83944198  0.66908044  0.79291613    -0.08850
C1911       C  0.83820698  0.63778021  0.77190604     0.30010
C1912       C  0.84153961  0.63870403  0.73285412    -0.20810
C1913       C  0.84929435  0.67037592  0.71404475    -0.08860
C1914       C  0.86308017  0.69778116  0.73738245     0.30020
F1915       F  0.88212797  0.72524800  0.72485972    -0.19380
H1916       H  0.86704644  0.71969955  0.79163304     0.18380
H1917       H  0.83424731  0.61542378  0.71684441     0.18390
F1918       F  0.82962956  0.60716032  0.78817695    -0.19370
C1919       C  0.84422365  0.73350926  0.86691153    -0.20810
C1920       C  0.82214028  0.71299744  0.84175415    -0.08850
C1921       C  0.79710002  0.73107212  0.81919444     0.30010
C1922       C  0.79814622  0.76642622  0.81688705    -0.20810
C1923       C  0.82237558  0.78822598  0.83802838    -0.08860
C1924       C  0.84351958  0.77076608  0.86599397     0.30020
F1925       F  0.86333877  0.78866480  0.89244792    -0.19380
H1926       H  0.86247000  0.72103973  0.88662764     0.18380
H1927       H  0.78223822  0.77534096  0.79377368     0.18390
F1928       F  0.77356953  0.71455745  0.79501186    -0.19370
C1929       C  0.73580439  0.66808620  0.70729445    -0.20810
C1930       C  0.71363957  0.66358474  0.67490532    -0.08850
C1931       C  0.73243972  0.65040316  0.64366441     0.30010
C1932       C  0.77115205  0.64665368  0.64502782    -0.20810
C1933       C  0.79284163  0.66304329  0.67395073    -0.08860
C1934       C  0.77289350  0.67443091  0.70478053     0.30020
F1935       F  0.78757708  0.69676799  0.73056344    -0.19380
H1936       H  0.72544367  0.67416381  0.73370317     0.18380
H1937       H  0.78344190  0.63513033  0.62119180     0.18390
F1938       F  0.71410021  0.64220238  0.61135260    -0.19370
C1939       C  0.70183941  0.77414997  0.66883688    -0.20810
C1940       C  0.66998657  0.79246104  0.66105576    -0.08850
C1941       C  0.63837020  0.77200874  0.65159912     0.30010
C1942       C  0.63966117  0.73519239  0.65267298    -0.20810
C1943       C  0.67309877  0.71722203  0.65776317    -0.08860
C1944       C  0.70454229  0.73888715  0.66193543     0.30020
F1945       F  0.73753138  0.72650794  0.66976414    -0.19380
H1946       H  0.72587927  0.78759635  0.68038275     0.18380
H1947       H  0.61404187  0.72079265  0.65156544     0.18390
F1948       F  0.60552977  0.78698093  0.64534771    -0.19370
C1949       C  0.76999396  0.86963644  0.66764048    -0.20810
C1950       C  0.78639574  0.84082991  0.64964822    -0.08850
C1951       C  0.76387793  0.82768665  0.61935659     0.30010
C1952       C  0.72578821  0.82867822  0.62175543    -0.20810
C1953       C  0.70953903  0.84619885  0.65177990    -0.08860
C1954       C  0.73160421  0.87372928  0.66582638     0.30020
F1955       F  0.71649858  0.90384430  0.67757691    -0.19380
H1956       H  0.78579718  0.88949862  0.68211785     0.18380
H1957       H  0.71013229  0.81142545  0.60331723     0.18390
F1958       F  0.77700623  0.80875501  0.59078059    -0.19370
C1959       C  0.67150149  0.86492079  0.77314091    -0.20810
C1960       C  0.65072358  0.83881921  0.79097736    -0.08850
C1961       C  0.62864884  0.81861787  0.76552608     0.30010
C1962       C  0.63477141  0.81924963  0.72692192    -0.20810
C1963       C  0.66544733  0.83652196  0.71169480    -0.08860
C1964       C  0.68422316  0.85920010  0.73736082     0.30020
F1965       F  0.71848170  0.87093206  0.73315745    -0.19380
H1966       H  0.68821689  0.88303226  0.78924992     0.18380
H1967       H  0.61530367  0.80527843  0.70916460     0.18390
F1968       F  0.59742072  0.80302320  0.77570080    -0.19370
C1969       C  0.72400011  0.82107964  0.80317693    -0.20810
C1970       C  0.70558343  0.83421070  0.83382195    -0.08850
C1971       C  0.72771218  0.84872593  0.86327062     0.30010
C1972       C  0.76602404  0.84614378  0.86155194    -0.20810
C1973       C  0.78306148  0.83918464  0.82721705    -0.08860
C1974       C  0.75899776  0.83194226  0.79650344     0.30020
F1975       F  0.76996573  0.82632170  0.76136209    -0.19380
H1976       H  0.70962494  0.80605885  0.78145514     0.18380
H1977       H  0.78222120  0.84965469  0.88701542     0.18390
F1978       F  0.71310935  0.85866469  0.89584793    -0.19370
C1979       C  0.63127134  0.66027435  0.77025666    -0.20810
C1980       C  0.65653049  0.68043941  0.79222232    -0.08850
C1981       C  0.67601579  0.70668532  0.77380584     0.30010
C1982       C  0.67368078  0.70965456  0.73602102    -0.20810
C1983       C  0.65817569  0.68285474  0.71322119    -0.08860
C1984       C  0.63216070  0.66116933  0.73090552     0.30020
F1985       F  0.60693300  0.64177671  0.71130585    -0.19380
H1986       H  0.61201895  0.64289237  0.78295457     0.18380
H1987       H  0.69131874  0.72954563  0.72588400     0.18390
F1988       F  0.70075834  0.72801928  0.79183747    -0.19370
C1989       C  0.72652181  0.66578953  0.87172632    -0.20810
C1990       C  0.70574513  0.66296180  0.83830802    -0.08850
C1991       C  0.72395011  0.64717435  0.80828790     0.30010
C1992       C  0.76198896  0.64620717  0.80794942    -0.20810
C1993       C  0.78377997  0.65992374  0.83787442    -0.08860
C1994       C  0.76489649  0.66737536  0.87106569     0.30020
F1995       F  0.78341400  0.67920948  0.90209592    -0.19380
H1996       H  0.71328212  0.67158640  0.89752234     0.18380
H1997       H  0.77297863  0.63800473  0.78210466     0.18390
F1998       F  0.70545084  0.63297112  0.77844687    -0.19370
C1999       C  0.62661390  0.76850513  0.83631113    -0.20810
C2000       C  0.65863682  0.78863127  0.84343201    -0.08850
C2001       C  0.68545822  0.77124487  0.86567320     0.30010
C2002       C  0.68688611  0.73527425  0.86652581    -0.20810
C2003       C  0.65938470  0.71451654  0.84918668    -0.08860
C2004       C  0.62675475  0.73202998  0.83908439     0.30020
F2005       F  0.59623735  0.71371242  0.82814869    -0.19380
H2006       H  0.60093038  0.78066990  0.83069819     0.18380
H2007       H  0.71091868  0.72534101  0.87974547     0.18390
F2008       F  0.71024131  0.78817543  0.88813865    -0.19370
C2009       C  0.61797038  0.59134019  0.86612528    -0.20810
C2010       C  0.60126956  0.60239776  0.89851831    -0.08850
C2011       C  0.60446424  0.63713223  0.90987671     0.30010
C2012       C  0.62381178  0.66082507  0.88875765    -0.20810
C2013       C  0.64091186  0.65048964  0.85558218    -0.08860
C2014       C  0.63830487  0.61477326  0.84532657     0.30020
F2015       F  0.65588539  0.60202781  0.81567381    -0.19380
H2016       H  0.61613268  0.56422392  0.85751197     0.18380
H2017       H  0.62596870  0.68710922  0.89968086     0.18390
F2018       F  0.58874361  0.64820966  0.94149566    -0.19370
C2019       C  0.61237533  0.87028715  0.58790791    -0.20810
C2020       C  0.59564084  0.89800336  0.60575825    -0.08850
C2021       C  0.60126400  0.90295571  0.64409789     0.30010
C2022       C  0.62449090  0.88123744  0.66402504    -0.20810
C2023       C  0.64203177  0.85305097  0.64664194    -0.08860
C2024       C  0.63487619  0.84773784  0.60797940     0.30020
F2025       F  0.64913899  0.82067509  0.58922997    -0.19380
H2026       H  0.60796165  0.86606484  0.55825488     0.18380
H2027       H  0.62951266  0.88792881  0.69299207     0.18390
F2028       F  0.58631023  0.93029718  0.66203456    -0.19370
C2029       C  0.88830071  0.63233888  0.66058189    -0.20810
C2030       C  0.85771727  0.65062962  0.64630248    -0.08850
C2031       C  0.85131097  0.64873892  0.60718314     0.30010
C2032       C  0.87146690  0.62641132  0.58483682    -0.20810
C2033       C  0.89996013  0.60681459  0.60021416    -0.08860
C2034       C  0.90878570  0.61083557  0.63821226     0.30020
F2035       F  0.93705947  0.59359368  0.65431593    -0.19380
H2036       H  0.89755951  0.63442459  0.68928224     0.18380
H2037       H  0.86510279  0.62496049  0.55525465     0.18390
F2038       F  0.82644024  0.66917425  0.58989033    -0.19370
C2039       C  0.63322887  0.66277283  0.61364408    -0.20810
C2040       C  0.64987401  0.65291474  0.64793892    -0.08850
C2041       C  0.64702506  0.61727813  0.65743771     0.30010
C2042       C  0.62384443  0.59438977  0.63693757    -0.20810
C2043       C  0.60486593  0.60572314  0.60512352    -0.08860
C2044       C  0.61066943  0.63965429  0.59284489     0.30020
F2045       F  0.59426754  0.65054868  0.56078719    -0.19380
H2046       H  0.63783940  0.68810741  0.60194891     0.18380
H2047       H  0.62093696  0.56765294  0.64574155     0.18390
F2048       F  0.66578741  0.60479612  0.68742971    -0.19370
C2049       C  0.86235294  0.90568798  0.88677805    -0.20810
C2050       C  0.89798709  0.89543259  0.89456232    -0.08850
C2051       C  0.91076727  0.86511421  0.87749640     0.30010
C2052       C  0.88694708  0.84409654  0.85520162    -0.20810
C2053       C  0.84973326  0.85240262  0.85006703    -0.08860
C2054       C  0.83919734  0.88575977  0.86340295     0.30020
F2055       F  0.80809177  0.90135908  0.85159161    -0.19380
H2056       H  0.85294757  0.93047509  0.89716543     0.18380
H2057       H  0.89745612  0.82085221  0.84230208     0.18390
F2058       F  0.94598293  0.85554953  0.88283376    -0.19370
C2059       C  0.83803324  0.62635560  0.88378976    -0.20810
C2060       C  0.85118368  0.65255976  0.86007446    -0.08850
C2061       C  0.88975237  0.65604956  0.85806756     0.30010
C2062       C  0.91316294  0.63290148  0.87683222    -0.20810
C2063       C  0.89910575  0.60716619  0.89996225    -0.08860
C2064       C  0.86131204  0.60532891  0.90443137     0.30020
F2065       F  0.84618668  0.58168792  0.92735829    -0.19380
H2066       H  0.80947554  0.62040937  0.88628613     0.18380
H2067       H  0.94232886  0.63523239  0.87340052     0.18390
F2068       F  0.90510889  0.68061414  0.83654874    -0.19370
C2069       C  0.62611123  0.91015421  0.88256478    -0.20810
C2070       C  0.59917107  0.89579984  0.90437406    -0.08850
C2071       C  0.59525334  0.85975433  0.90637754     0.30010
C2072       C  0.61698197  0.83823197  0.88506027    -0.20810
C2073       C  0.64297312  0.85210896  0.86050986    -0.08860
C2074       C  0.64806667  0.88887382  0.86133238     0.30020
F2075       F  0.67572152  0.90483875  0.84405645    -0.19380
H2076       H  0.63053670  0.93811358  0.88238525     0.18380
H2077       H  0.61263702  0.81071332  0.88837885     0.18390
F2078       F  0.57035961  0.84530865  0.92896853    -0.19370
C2079       C  0.90654208  0.89003470  0.63559705    -0.20810
C2080       C  0.89844054  0.89567560  0.59780455    -0.08850
C2081       C  0.87096087  0.87514662  0.58015497     0.30010
C2082       C  0.84986119  0.85234859  0.60060627    -0.20810
C2083       C  0.85447740  0.84924049  0.63949009    -0.08860
C2084       C  0.88568518  0.86651946  0.65606623     0.30020
F2085       F  0.89818373  0.85938038  0.69093998    -0.19380
H2086       H  0.92920422  0.90382509  0.64945121     0.18380
H2087       H  0.82979123  0.83714525  0.58523450     0.18390
F2088       F  0.86447011  0.87644012  0.54287582    -0.19370
loop_ 
_geom_bond_atom_site_label_1 
_geom_bond_atom_site_label_2 
_geom_bond_distance 
_geom_bond_site_symmetry_2 
_ccdc_geom_bond_type 
C1           N19   1.353       .  A
C1           C38   1.457       .  S
C1          C223   1.473       .  S
N2           N19   1.324       .  A
N2           N24   1.318       .  A
N2          Co39   2.092       .  S
C3           N28   1.341       .  A
C3           C41   1.457       .  S
C3           H48   1.081       .  S
H4           C45   1.081       .  S
C5           N29   1.337       .  A
C5            C9   1.455       .  S
C5           H34   1.082       .  S
Co6          N14   2.087       .  S
Co6        N1068   2.076   1_455  S
Co6        N1612   2.106   1_455  S
Co6         N544   2.072       .  S
Co6        Cl833   2.458   1_455  S
N7           C45   1.337       .  A
N7           N14   1.319       .  A
N7         Co791   2.071       .  S
Co8          N15   2.080       .  S
Co8         N790   2.071   1_544  S
Co8         N533   2.087   1_545  S
Co8         N289   2.088   1_554  S
Co8         Cl50   2.440   1_455  S
C9           N47   1.350       .  A
C9          C193   1.466       .  S
N10          N17   1.319       .  A
N10          N40   1.327       .  A
N10        Co565   2.093       .  S
N11          N29   1.319       .  A
N11          N47   1.324       .  A
N11        Co530   2.087       .  S
N12          C41   1.345       .  A
N12          N22   1.323       .  A
H13          C38   1.082       .  S
N14          N35   1.324       .  A
N15          N33   1.321       .  A
N15          N20   1.324       .  A
C16          N20   1.347       .  A
C16          C44   1.460       .  S
C16         C216   1.469       .  S
N17          C32   1.337       .  A
N17        Co300   2.077   1_554  S
C18          N46   1.350       .  A
C18          C21   1.470       .  S
C18          H52   1.081       .  S
C21          N42   1.347       .  A
C21         C236   1.484       .  S
N22          N28   1.321       .  A
N22        Co528   2.072   1_545  S
N23          C49   1.343       .  A
N23          N25   1.319       .  A
N23        Co822   2.088   1_554  S
N24          C38   1.341       .  A
N24       Co1050   2.076       .  S
N25          N53   1.322       .  A
N25         Co43   2.079       .  S
H26          C49   1.081       .  S
H27          C44   1.082       .  S
N28        Co269   2.088       .  S
N29       Co1609   2.068   1_455  S
N30          N42   1.320       .  A
N30          N46   1.320       .  A
N30        Co561   2.073       .  S
C31          N35   1.350       .  A
C31          C45   1.453       .  S
C31         C243   1.460       .  S
C32          C51   1.463       .  S
C32          H36   1.080       .  S
N33          C44   1.342       .  A
N33       Co1087   2.093   1_455  S
C37          N53   1.350       .  A
C37          C49   1.463       .  S
C37         C206   1.481       .  S
Co39        N278   2.077       .  S
Co39        N806   2.088       .  S
Co39        N552   2.073       .  S
Co39      Cl1877   2.442       .  S
N40          C51   1.353       .  A
C41         C183   1.462       .  S
Co43        N532   2.093   1_545  S
Co43       N1595   2.068   1_545  S
Co43       N1077   2.093       .  S
Co43      Cl1094   2.456       .  S
N46       Co1572   2.106   1_545  S
Cl50       Co789   2.458   1_644  S
Cl50      Co1866   2.442   1_554  S
Cl50      Co1087   2.456       .  S
C51         C253   1.485       .  S
C54         C153   1.556       .  S
C54         C163   1.579       .  S
C54         C176   1.572       .  S
C54         C186   1.549       .  S
C55         C133   1.614       .  S
C55         C143   1.565       .  S
C55         C173   1.587       .  S
C55         C246   1.557       .  S
C56         C113   1.568       .  S
C56         C126   1.597       .  S
C56         C136   1.599       .  S
C56         C196   1.546       .  S
C57         C103   1.597       .  S
C57         C116   1.583       .  S
C57         C156   1.581       .  S
C57         C213   1.554       .  S
C58          C83   1.586       .  S
C58          C93   1.567       .  S
C58         C166   1.586       .  S
C58         C233   1.562       .  S
C59          C76   1.588       .  S
C59          C86   1.595       .  S
C59         C106   1.597       .  S
C59         C203   1.559       .  S
C60          C63   1.595       .  S
C60          C73   1.589       .  S
C60         C123   1.610       .  S
C60         C256   1.561       .  S
C61          C66   1.573       .  S
C61          C96   1.596       .  S
C61         C146   1.568       .  S
C61         C226   1.556       .  S
C62          H69   1.078       .  S
C62          C63   1.425       .  A
C62          C67   1.415       .  A
C63          C64   1.426       .  A
C64          C65   1.388       .  A
C64          F71   1.349       .  S
C65          H70   1.076       .  S
C65          C66   1.400       .  A
C66          C67   1.418       .  A
C67          F68   1.354       .  S
C72          H79   1.062       .  S
C72          C73   1.407       .  A
C72          C77   1.381       .  A
C73          C74   1.434       .  A
C74          C75   1.430       .  A
C74          F81   1.355       .  S
C75          H80   1.083       .  S
C75          C76   1.417       .  A
C76          C77   1.405       .  A
C77          F78   1.351       .  S
C82          H89   1.079       .  S
C82          C83   1.419       .  A
C82          C87   1.398       .  A
C83          C84   1.412       .  A
C84          C85   1.415       .  A
C84          F91   1.357       .  S
C85          H90   1.083       .  S
C85          C86   1.429       .  A
C86          C87   1.415       .  A
C87          F88   1.346       .  S
C92          H99   1.081       .  S
C92          C93   1.418       .  A
C92          C97   1.433       .  A
C93          C94   1.404       .  A
C94          C95   1.362       .  A
C94         F101   1.351       .  S
C95         H100   1.064       .  S
C95          C96   1.410       .  A
C96          C97   1.431       .  A
C97          F98   1.353       .  S
C102        H109   1.059       .  S
C102        C103   1.407       .  A
C102        C107   1.384       .  A
C103        C104   1.428       .  A
C104        C105   1.429       .  A
C104        F111   1.356       .  S
C105        H110   1.075       .  S
C105        C106   1.424       .  A
C106        C107   1.416       .  A
C107        F108   1.349       .  S
C112        H119   1.083       .  S
C112        C113   1.396       .  A
C112        C117   1.380       .  A
C113        C114   1.420       .  A
C114        C115   1.417       .  A
C114        F121   1.357       .  S
C115        H120   1.082       .  S
C115        C116   1.425       .  A
C116        C117   1.414       .  A
C117        F118   1.330       .  S
C122        H129   1.071       .  S
C122        C123   1.426       .  A
C122        C127   1.419       .  A
C123        C124   1.429       .  A
C124        C125   1.404       .  A
C124        F131   1.357       .  S
C125        H130   1.078       .  S
C125        C126   1.418       .  A
C126        C127   1.401       .  A
C127        F128   1.359       .  S
C132        H139   1.072       .  S
C132        C133   1.422       .  A
C132        C137   1.399       .  A
C133        C134   1.418       .  A
C134        C135   1.414       .  A
C134        F141   1.347       .  S
C135        H140   1.075       .  S
C135        C136   1.425       .  A
C136        C137   1.416       .  A
C137        F138   1.342       .  S
C142        H149   1.084       .  S
C142        C143   1.403       .  A
C142        C147   1.373       .  A
C143        C144   1.417       .  A
C144        C145   1.413       .  A
C144        F151   1.357       .  S
C145        H150   1.082       .  S
C145        C146   1.426       .  A
C146        C147   1.414       .  A
C147        F148   1.354       .  S
C152        H159   1.080       .  S
C152        C153   1.414       .  A
C152        C157   1.418       .  A
C153        C154   1.411       .  A
C154        C155   1.365       .  A
C154        F161   1.357       .  S
C155        H160   1.068       .  S
C155        C156   1.410       .  A
C156        C157   1.427       .  A
C157        F158   1.354       .  S
C162        H169   1.083       .  S
C162        C163   1.405       .  A
C162        C167   1.409       .  A
C163        C164   1.422       .  A
C164        C165   1.397       .  A
C164        F171   1.356       .  S
C165        H170   1.071       .  S
C165        C166   1.412       .  A
C166        C167   1.427       .  A
C167        F168   1.358       .  S
C172        H179   1.073       .  S
C172        C173   1.411       .  A
C172        C177   1.406       .  A
C173        C174   1.428       .  A
C174        C175   1.385       .  A
C174        F181   1.351       .  S
C175        H180   1.067       .  S
C175        C176   1.402       .  A
C176        C177   1.422       .  A
C177        F178   1.358       .  S
C182        H189   1.084       .  S
C182        C183   1.398       .  A
C182        C187   1.399       .  A
C183        C184   1.393       .  A
C184        C185   1.393       .  A
C184        F191   1.358       .  S
C185        H190   1.080       .  S
C185        C186   1.421       .  A
C186        C187   1.417       .  A
C187        F188   1.354       .  S
C192        H199   1.084       .  S
C192        C193   1.397       .  A
C192        C197   1.398       .  A
C193        C194   1.398       .  A
C194        C195   1.391       .  A
C194        F201   1.358       .  S
C195        H200   1.080       .  S
C195        C196   1.417       .  A
C196        C197   1.419       .  A
C197        F198   1.353       .  S
C202        H209   1.078       .  S
C202        C203   1.419       .  A
C202        C207   1.391       .  A
C203        C204   1.420       .  A
C204        C205   1.403       .  A
C204        F211   1.355       .  S
C205        H210   1.083       .  S
C205        C206   1.402       .  A
C206        C207   1.401       .  A
C207        F208   1.358       .  S
C212        H219   1.078       .  S
C212        C213   1.418       .  A
C212        C217   1.398       .  A
C213        C214   1.418       .  A
C214        C215   1.400       .  A
C214        F221   1.358       .  S
C215        H220   1.083       .  S
C215        C216   1.399       .  A
C216        C217   1.397       .  A
C217        F218   1.358       .  S
C222        H229   1.084       .  S
C222        C223   1.392       .  A
C222        C227   1.390       .  A
C223        C224   1.404       .  A
C224        C225   1.406       .  A
C224        F231   1.357       .  S
C225        H230   1.083       .  S
C225        C226   1.414       .  A
C226        C227   1.426       .  A
C227        F228   1.356       .  S
C232        H239   1.075       .  S
C232        C233   1.416       .  A
C232        C237   1.389       .  A
C233        C234   1.423       .  A
C234        C235   1.410       .  A
C234        F241   1.355       .  S
C235        H240   1.083       .  S
C235        C236   1.403       .  A
C236        C237   1.401       .  A
C237        F238   1.358       .  S
C242        H249   1.084       .  S
C242        C243   1.392       .  A
C242        C247   1.394       .  A
C243        C244   1.393       .  A
C244        C245   1.396       .  A
C244        F251   1.358       .  S
C245        H250   1.075       .  S
C245        C246   1.422       .  A
C246        C247   1.422       .  A
C247        F248   1.349       .  S
C252        H259   1.083       .  S
C252        C253   1.403       .  A
C252        C257   1.405       .  A
C253        C254   1.401       .  A
C254        C255   1.392       .  A
C254        F261   1.356       .  S
C255        H260   1.068       .  S
C255        C256   1.410       .  A
C256        C257   1.425       .  A
C257        F258   1.355       .  S
C262        N280   1.353       .  A
C262        C299   1.457       .  S
C262        C484   1.473       .  S
N263        N280   1.324       .  A
N263        N285   1.318       .  A
N263       Co300   2.092       .  S
C264        N289   1.341       .  A
C264        C302   1.457       .  S
C264        H309   1.081       .  S
H265        C306   1.081       .  S
C266        N290   1.337       .  A
C266        C270   1.455       .  S
C266        H295   1.082       .  S
Co267      N1329   2.076   1_455  S
Co267       N275   2.087       .  S
Co267      N1873   2.106   1_455  S
Co267       N805   2.072       .  S
Co267      Cl572   2.458   1_456  S
N268        C306   1.337       .  A
N268        N275   1.319       .  A
N268       Co530   2.071   1_556  S
Co269       N529   2.071   1_545  S
Co269       N794   2.087   1_545  S
Co269       N276   2.080       .  S
Co269      Cl311   2.440   1_455  S
C270        N308   1.350       .  A
C270        C454   1.466       .  S
N271        N278   1.319       .  A
N271        N301   1.327       .  A
N271       Co826   2.093       .  S
N272        N290   1.319       .  A
N272        N308   1.324       .  A
N272       Co791   2.087       .  S
N273        C302   1.345       .  A
N273        N283   1.323       .  A
H274        C299   1.082       .  S
N275        N296   1.324       .  A
N276        N294   1.321       .  A
N276        N281   1.324       .  A
C277        N281   1.347       .  A
C277        C305   1.460       .  S
C277        C477   1.469       .  S
N278        C293   1.337       .  A
C279        N307   1.350       .  A
C279        C282   1.470       .  S
C279        H313   1.081       .  S
C282        N303   1.347       .  A
C282        C497   1.484       .  S
N283        N289   1.321       .  A
N283       Co789   2.072   1_545  S
N284        C310   1.343       .  A
N284        N286   1.319       .  A
N284       Co561   2.088       .  S
N285        C299   1.341       .  A
N285      Co1311   2.076       .  S
N286        N314   1.322       .  A
N286       Co304   2.079       .  S
H287        C310   1.081       .  S
H288        C305   1.082       .  S
N290      Co1870   2.068   1_455  S
N291        N303   1.320       .  A
N291        N307   1.320       .  A
N291       Co822   2.073       .  S
C292        N296   1.350       .  A
C292        C306   1.453       .  S
C292        C504   1.460       .  S
C293        C312   1.463       .  S
C293        H297   1.080       .  S
N294        C305   1.342       .  A
N294      Co1348   2.093   1_455  S
C298        N314   1.350       .  A
C298        C310   1.463       .  S
C298        C467   1.481       .  S
Co300       N545   2.088   1_556  S
Co300       N813   2.073       .  S
Co300     Cl1616   2.442   1_556  S
N301        C312   1.353       .  A
C302        C444   1.462       .  S
Co304       N793   2.093   1_545  S
Co304      N1856   2.068   1_545  S
Co304      N1338   2.093       .  S
Co304     Cl1355   2.456       .  S
N307      Co1833   2.106   1_545  S
Cl311      Co528   2.458   1_645  S
Cl311     Co1605   2.442       .  S
Cl311     Co1348   2.456       .  S
C312        C514   1.485       .  S
C315        C414   1.556       .  S
C315        C424   1.579       .  S
C315        C437   1.572       .  S
C315        C447   1.549       .  S
C316        C394   1.614       .  S
C316        C404   1.565       .  S
C316        C434   1.587       .  S
C316        C507   1.557       .  S
C317        C374   1.568       .  S
C317        C387   1.597       .  S
C317        C397   1.599       .  S
C317        C457   1.546       .  S
C318        C364   1.597       .  S
C318        C377   1.583       .  S
C318        C417   1.581       .  S
C318        C474   1.554       .  S
C319        C344   1.586       .  S
C319        C354   1.567       .  S
C319        C427   1.586       .  S
C319        C494   1.562       .  S
C320        C337   1.588       .  S
C320        C347   1.595       .  S
C320        C367   1.597       .  S
C320        C464   1.559       .  S
C321        C324   1.595       .  S
C321        C334   1.589       .  S
C321        C384   1.610       .  S
C321        C517   1.561       .  S
C322        C327   1.573       .  S
C322        C357   1.596       .  S
C322        C407   1.568       .  S
C322        C487   1.556       .  S
C323        H330   1.078       .  S
C323        C324   1.425       .  A
C323        C328   1.415       .  A
C324        C325   1.426       .  A
C325        C326   1.388       .  A
C325        F332   1.349       .  S
C326        H331   1.076       .  S
C326        C327   1.400       .  A
C327        C328   1.418       .  A
C328        F329   1.354       .  S
C333        H340   1.062       .  S
C333        C334   1.407       .  A
C333        C338   1.381       .  A
C334        C335   1.434       .  A
C335        C336   1.430       .  A
C335        F342   1.355       .  S
C336        H341   1.083       .  S
C336        C337   1.417       .  A
C337        C338   1.405       .  A
C338        F339   1.351       .  S
C343        H350   1.079       .  S
C343        C344   1.419       .  A
C343        C348   1.398       .  A
C344        C345   1.412       .  A
C345        C346   1.415       .  A
C345        F352   1.357       .  S
C346        H351   1.083       .  S
C346        C347   1.429       .  A
C347        C348   1.415       .  A
C348        F349   1.346       .  S
C353        H360   1.081       .  S
C353        C354   1.418       .  A
C353        C358   1.433       .  A
C354        C355   1.404       .  A
C355        C356   1.362       .  A
C355        F362   1.351       .  S
C356        H361   1.064       .  S
C356        C357   1.410       .  A
C357        C358   1.431       .  A
C358        F359   1.353       .  S
C363        H370   1.059       .  S
C363        C364   1.407       .  A
C363        C368   1.384       .  A
C364        C365   1.428       .  A
C365        C366   1.429       .  A
C365        F372   1.356       .  S
C366        H371   1.075       .  S
C366        C367   1.424       .  A
C367        C368   1.416       .  A
C368        F369   1.349       .  S
C373        H380   1.083       .  S
C373        C374   1.396       .  A
C373        C378   1.380       .  A
C374        C375   1.420       .  A
C375        C376   1.417       .  A
C375        F382   1.357       .  S
C376        H381   1.082       .  S
C376        C377   1.425       .  A
C377        C378   1.415       .  A
C378        F379   1.330       .  S
C383        H390   1.071       .  S
C383        C384   1.426       .  A
C383        C388   1.419       .  A
C384        C385   1.429       .  A
C385        C386   1.403       .  A
C385        F392   1.357       .  S
C386        H391   1.078       .  S
C386        C387   1.418       .  A
C387        C388   1.401       .  A
C388        F389   1.359       .  S
C393        H400   1.072       .  S
C393        C394   1.422       .  A
C393        C398   1.399       .  A
C394        C395   1.418       .  A
C395        C396   1.414       .  A
C395        F402   1.347       .  S
C396        H401   1.075       .  S
C396        C397   1.425       .  A
C397        C398   1.416       .  A
C398        F399   1.342       .  S
C403        H410   1.084       .  S
C403        C404   1.403       .  A
C403        C408   1.373       .  A
C404        C405   1.417       .  A
C405        C406   1.413       .  A
C405        F412   1.357       .  S
C406        H411   1.082       .  S
C406        C407   1.426       .  A
C407        C408   1.414       .  A
C408        F409   1.354       .  S
C413        H420   1.080       .  S
C413        C414   1.414       .  A
C413        C418   1.418       .  A
C414        C415   1.411       .  A
C415        C416   1.365       .  A
C415        F422   1.357       .  S
C416        H421   1.068       .  S
C416        C417   1.410       .  A
C417        C418   1.427       .  A
C418        F419   1.354       .  S
C423        H430   1.083       .  S
C423        C424   1.405       .  A
C423        C428   1.409       .  A
C424        C425   1.422       .  A
C425        C426   1.397       .  A
C425        F432   1.356       .  S
C426        H431   1.071       .  S
C426        C427   1.412       .  A
C427        C428   1.427       .  A
C428        F429   1.358       .  S
C433        H440   1.073       .  S
C433        C434   1.411       .  A
C433        C438   1.406       .  A
C434        C435   1.428       .  A
C435        C436   1.385       .  A
C435        F442   1.351       .  S
C436        H441   1.067       .  S
C436        C437   1.402       .  A
C437        C438   1.422       .  A
C438        F439   1.358       .  S
C443        H450   1.084       .  S
C443        C444   1.398       .  A
C443        C448   1.399       .  A
C444        C445   1.393       .  A
C445        C446   1.393       .  A
C445        F452   1.358       .  S
C446        H451   1.080       .  S
C446        C447   1.421       .  A
C447        C448   1.417       .  A
C448        F449   1.354       .  S
C453        H460   1.084       .  S
C453        C454   1.397       .  A
C453        C458   1.398       .  A
C454        C455   1.398       .  A
C455        C456   1.391       .  A
C455        F462   1.358       .  S
C456        H461   1.080       .  S
C456        C457   1.417       .  A
C457        C458   1.419       .  A
C458        F459   1.353       .  S
C463        H470   1.078       .  S
C463        C464   1.419       .  A
C463        C468   1.391       .  A
C464        C465   1.420       .  A
C465        C466   1.403       .  A
C465        F472   1.355       .  S
C466        H471   1.083       .  S
C466        C467   1.402       .  A
C467        C468   1.401       .  A
C468        F469   1.358       .  S
C473        H480   1.078       .  S
C473        C474   1.418       .  A
C473        C478   1.398       .  A
C474        C475   1.418       .  A
C475        C476   1.400       .  A
C475        F482   1.358       .  S
C476        H481   1.083       .  S
C476        C477   1.399       .  A
C477        C478   1.397       .  A
C478        F479   1.358       .  S
C483        H490   1.084       .  S
C483        C484   1.392       .  A
C483        C488   1.390       .  A
C484        C485   1.404       .  A
C485        C486   1.406       .  A
C485        F492   1.357       .  S
C486        H491   1.083       .  S
C486        C487   1.414       .  A
C487        C488   1.426       .  A
C488        F489   1.356       .  S
C493        H500   1.075       .  S
C493        C494   1.416       .  A
C493        C498   1.389       .  A
C494        C495   1.423       .  A
C495        C496   1.410       .  A
C495        F502   1.355       .  S
C496        H501   1.083       .  S
C496        C497   1.403       .  A
C497        C498   1.401       .  A
C498        F499   1.358       .  S
C503        H510   1.084       .  S
C503        C504   1.392       .  A
C503        C508   1.394       .  A
C504        C505   1.393       .  A
C505        C506   1.396       .  A
C505        F512   1.358       .  S
C506        H511   1.075       .  S
C506        C507   1.422       .  A
C507        C508   1.422       .  A
C508        F509   1.349       .  S
C513        H520   1.083       .  S
C513        C514   1.403       .  A
C513        C518   1.405       .  A
C514        C515   1.401       .  A
C515        C516   1.392       .  A
C515        F522   1.356       .  S
C516        H521   1.068       .  S
C516        C517   1.410       .  A
C517        C518   1.425       .  A
C518        F519   1.355       .  S
C523        N541   1.353       .  A
C523        C560   1.457       .  S
C523        C745   1.473       .  S
N524        N541   1.324       .  A
N524        N546   1.318       .  A
N524       Co561   2.092   1_565  S
C525        N550   1.341       .  A
C525        C563   1.457       .  S
C525        H570   1.081       .  S
H526        C567   1.081       .  S
C527        N551   1.337       .  A
C527        C531   1.455       .  S
C527        H556   1.082       .  S
Co528      N1590   2.076   1_455  S
Co528       N536   2.087       .  S
Co528      N1090   2.106   1_465  S
N529        C567   1.337       .  A
N529        N536   1.319       .  A
Co530       N811   2.088   1_554  S
Co530       N537   2.080       .  S
Co530      Cl572   2.440   1_455  S
C531        N569   1.350       .  A
C531        C715   1.466       .  S
N532        N539   1.319       .  A
N532        N562   1.327       .  A
N533        N551   1.319       .  A
N533        N569   1.324       .  A
N534        C563   1.345       .  A
N534        N544   1.323       .  A
H535        C560   1.082       .  S
N536        N557   1.324       .  A
N537        N555   1.321       .  A
N537        N542   1.324       .  A
C538        N542   1.347       .  A
C538        C566   1.460       .  S
C538        C738   1.469       .  S
N539        C554   1.337       .  A
N539       Co822   2.077   1_564  S
C540        N568   1.350       .  A
C540        C543   1.470       .  S
C540        H574   1.081       .  S
C543        N564   1.347       .  A
C543        C758   1.484       .  S
N544        N550   1.321       .  A
N545        C571   1.343       .  A
N545        N547   1.319       .  A
N546        C560   1.341       .  A
N546      Co1572   2.076       .  S
N547        N575   1.322       .  A
N547       Co565   2.079       .  S
H548        C571   1.081       .  S
H549        C566   1.082       .  S
N550       Co791   2.088       .  S
N551      Co1087   2.068   1_465  S
N552        N564   1.320       .  A
N552        N568   1.320       .  A
C553        N557   1.350       .  A
C553        C567   1.453       .  S
C553        C765   1.460       .  S
C554        C573   1.463       .  S
C554        H558   1.080       .  S
N555        C566   1.342       .  A
N555      Co1609   2.093   1_455  S
C559        N575   1.350       .  A
C559        C571   1.463       .  S
C559        C728   1.481       .  S
Co561       N800   2.077   1_545  S
Co561     Cl1355   2.442       .  S
N562        C573   1.353       .  A
C563        C705   1.462       .  S
Co565      N1073   2.068       .  S
Co565      N1599   2.093       .  S
Co565     Cl1616   2.456       .  S
N568      Co1050   2.106       .  S
Cl572     Co1344   2.442   1_554  S
Cl572     Co1609   2.456       .  S
C573        C775   1.485       .  S
C576        C675   1.556       .  S
C576        C685   1.579       .  S
C576        C698   1.572       .  S
C576        C708   1.549       .  S
C577        C655   1.614       .  S
C577        C665   1.565       .  S
C577        C695   1.587       .  S
C577        C768   1.557       .  S
C578        C635   1.568       .  S
C578        C648   1.597       .  S
C578        C658   1.599       .  S
C578        C718   1.546       .  S
C579        C625   1.597       .  S
C579        C638   1.583       .  S
C579        C678   1.581       .  S
C579        C735   1.554       .  S
C580        C605   1.586       .  S
C580        C615   1.567       .  S
C580        C688   1.586       .  S
C580        C755   1.562       .  S
C581        C598   1.588       .  S
C581        C608   1.595       .  S
C581        C628   1.597       .  S
C581        C725   1.559       .  S
C582        C585   1.595       .  S
C582        C595   1.589       .  S
C582        C645   1.610       .  S
C582        C778   1.561       .  S
C583        C588   1.573       .  S
C583        C618   1.596       .  S
C583        C668   1.568       .  S
C583        C748   1.556       .  S
C584        H591   1.078       .  S
C584        C585   1.425       .  A
C584        C589   1.415       .  A
C585        C586   1.426       .  A
C586        C587   1.388       .  A
C586        F593   1.349       .  S
C587        H592   1.076       .  S
C587        C588   1.400       .  A
C588        C589   1.418       .  A
C589        F590   1.354       .  S
C594        H601   1.062       .  S
C594        C595   1.407       .  A
C594        C599   1.381       .  A
C595        C596   1.434       .  A
C596        C597   1.430       .  A
C596        F603   1.355       .  S
C597        H602   1.083       .  S
C597        C598   1.417       .  A
C598        C599   1.405       .  A
C599        F600   1.351       .  S
C604        H611   1.079       .  S
C604        C605   1.419       .  A
C604        C609   1.398       .  A
C605        C606   1.412       .  A
C606        C607   1.415       .  A
C606        F613   1.357       .  S
C607        H612   1.083       .  S
C607        C608   1.429       .  A
C608        C609   1.415       .  A
C609        F610   1.346       .  S
C614        H621   1.081       .  S
C614        C615   1.418       .  A
C614        C619   1.433       .  A
C615        C616   1.404       .  A
C616        C617   1.362       .  A
C616        F623   1.351       .  S
C617        H622   1.064       .  S
C617        C618   1.410       .  A
C618        C619   1.431       .  A
C619        F620   1.353       .  S
C624        H631   1.059       .  S
C624        C625   1.407       .  A
C624        C629   1.384       .  A
C625        C626   1.428       .  A
C626        C627   1.429       .  A
C626        F633   1.356       .  S
C627        H632   1.075       .  S
C627        C628   1.424       .  A
C628        C629   1.416       .  A
C629        F630   1.349       .  S
C634        H641   1.083       .  S
C634        C635   1.396       .  A
C634        C639   1.380       .  A
C635        C636   1.420       .  A
C636        C637   1.417       .  A
C636        F643   1.357       .  S
C637        H642   1.082       .  S
C637        C638   1.425       .  A
C638        C639   1.415       .  A
C639        F640   1.330       .  S
C644        H651   1.071       .  S
C644        C645   1.426       .  A
C644        C649   1.419       .  A
C645        C646   1.429       .  A
C646        C647   1.403       .  A
C646        F653   1.357       .  S
C647        H652   1.078       .  S
C647        C648   1.418       .  A
C648        C649   1.401       .  A
C649        F650   1.359       .  S
C654        H661   1.072       .  S
C654        C655   1.422       .  A
C654        C659   1.399       .  A
C655        C656   1.418       .  A
C656        C657   1.414       .  A
C656        F663   1.347       .  S
C657        H662   1.075       .  S
C657        C658   1.425       .  A
C658        C659   1.416       .  A
C659        F660   1.342       .  S
C664        H671   1.084       .  S
C664        C665   1.403       .  A
C664        C669   1.373       .  A
C665        C666   1.417       .  A
C666        C667   1.413       .  A
C666        F673   1.357       .  S
C667        H672   1.082       .  S
C667        C668   1.426       .  A
C668        C669   1.414       .  A
C669        F670   1.354       .  S
C674        H681   1.080       .  S
C674        C675   1.414       .  A
C674        C679   1.418       .  A
C675        C676   1.411       .  A
C676        C677   1.365       .  A
C676        F683   1.357       .  S
C677        H682   1.068       .  S
C677        C678   1.410       .  A
C678        C679   1.427       .  A
C679        F680   1.354       .  S
C684        H691   1.083       .  S
C684        C685   1.405       .  A
C684        C689   1.409       .  A
C685        C686   1.422       .  A
C686        C687   1.397       .  A
C686        F693   1.356       .  S
C687        H692   1.071       .  S
C687        C688   1.412       .  A
C688        C689   1.427       .  A
C689        F690   1.358       .  S
C694        H701   1.073       .  S
C694        C695   1.411       .  A
C694        C699   1.406       .  A
C695        C696   1.428       .  A
C696        C697   1.385       .  A
C696        F703   1.351       .  S
C697        H702   1.067       .  S
C697        C698   1.402       .  A
C698        C699   1.422       .  A
C699        F700   1.358       .  S
C704        H711   1.084       .  S
C704        C705   1.398       .  A
C704        C709   1.399       .  A
C705        C706   1.393       .  A
C706        C707   1.393       .  A
C706        F713   1.358       .  S
C707        H712   1.080       .  S
C707        C708   1.421       .  A
C708        C709   1.417       .  A
C709        F710   1.354       .  S
C714        H721   1.084       .  S
C714        C715   1.397       .  A
C714        C719   1.398       .  A
C715        C716   1.398       .  A
C716        C717   1.391       .  A
C716        F723   1.358       .  S
C717        H722   1.080       .  S
C717        C718   1.417       .  A
C718        C719   1.419       .  A
C719        F720   1.353       .  S
C724        H731   1.078       .  S
C724        C725   1.419       .  A
C724        C729   1.391       .  A
C725        C726   1.420       .  A
C726        C727   1.403       .  A
C726        F733   1.355       .  S
C727        H732   1.083       .  S
C727        C728   1.402       .  A
C728        C729   1.401       .  A
C729        F730   1.358       .  S
C734        H741   1.078       .  S
C734        C735   1.418       .  A
C734        C739   1.398       .  A
C735        C736   1.418       .  A
C736        C737   1.400       .  A
C736        F743   1.358       .  S
C737        H742   1.083       .  S
C737        C738   1.399       .  A
C738        C739   1.397       .  A
C739        F740   1.358       .  S
C744        H751   1.084       .  S
C744        C745   1.392       .  A
C744        C749   1.390       .  A
C745        C746   1.404       .  A
C746        C747   1.406       .  A
C746        F753   1.357       .  S
C747        H752   1.083       .  S
C747        C748   1.414       .  A
C748        C749   1.426       .  A
C749        F750   1.356       .  S
C754        H761   1.075       .  S
C754        C755   1.416       .  A
C754        C759   1.389       .  A
C755        C756   1.423       .  A
C756        C757   1.410       .  A
C756        F763   1.355       .  S
C757        H762   1.083       .  S
C757        C758   1.403       .  A
C758        C759   1.401       .  A
C759        F760   1.358       .  S
C764        H771   1.084       .  S
C764        C765   1.392       .  A
C764        C769   1.394       .  A
C765        C766   1.393       .  A
C766        C767   1.396       .  A
C766        F773   1.358       .  S
C767        H772   1.075       .  S
C767        C768   1.422       .  A
C768        C769   1.422       .  A
C769        F770   1.349       .  S
C774        H781   1.083       .  S
C774        C775   1.403       .  A
C774        C779   1.405       .  A
C775        C776   1.401       .  A
C776        C777   1.392       .  A
C776        F783   1.356       .  S
C777        H782   1.068       .  S
C777        C778   1.410       .  A
C778        C779   1.425       .  A
C779        F780   1.355       .  S
C784        N802   1.353       .  A
C784        C821   1.457       .  S
C784       C1006   1.473       .  S
N785        N802   1.324       .  A
N785        N807   1.318       .  A
N785       Co822   2.092   1_565  S
C786        N811   1.341       .  A
C786        C824   1.457       .  S
C786        H831   1.081       .  S
H787        C828   1.081       .  S
C788        N812   1.337       .  A
C788        C792   1.455       .  S
C788        H817   1.082       .  S
Co789      N1851   2.076   1_455  S
Co789       N797   2.087       .  S
Co789      N1351   2.106   1_465  S
N790        C828   1.337       .  A
N790        N797   1.319       .  A
Co791       N798   2.080       .  S
Co791      Cl833   2.440   1_455  S
C792        N830   1.350       .  A
C792        C976   1.466       .  S
N793        N800   1.319       .  A
N793        N823   1.327       .  A
N794        N812   1.319       .  A
N794        N830   1.324       .  A
N795        C824   1.345       .  A
N795        N805   1.323       .  A
H796        C821   1.082       .  S
N797        N818   1.324       .  A
N798        N816   1.321       .  A
N798        N803   1.324       .  A
C799        N803   1.347       .  A
C799        C827   1.460       .  S
C799        C999   1.469       .  S
N800        C815   1.337       .  A
C801        N829   1.350       .  A
C801        C804   1.470       .  S
C801        H835   1.081       .  S
C804        N825   1.347       .  A
C804       C1019   1.484       .  S
N805        N811   1.321       .  A
N806        C832   1.343       .  A
N806        N808   1.319       .  A
N807        C821   1.341       .  A
N807      Co1833   2.076       .  S
N808        N836   1.322       .  A
N808       Co826   2.079       .  S
H809        C832   1.081       .  S
H810        C827   1.082       .  S
N812      Co1348   2.068   1_465  S
N813        N825   1.320       .  A
N813        N829   1.320       .  A
C814        N818   1.350       .  A
C814        C828   1.453       .  S
C814       C1026   1.460       .  S
C815        C834   1.463       .  S
C815        H819   1.080       .  S
N816        C827   1.342       .  A
N816      Co1870   2.093   1_455  S
C820        N836   1.350       .  A
C820        C832   1.463       .  S
C820        C989   1.481       .  S
Co822     Cl1094   2.442   1_556  S
N823        C834   1.353       .  A
C824        C966   1.462       .  S
Co826      N1334   2.068       .  S
Co826      N1860   2.093       .  S
Co826     Cl1877   2.456       .  S
N829      Co1311   2.106       .  S
Cl833     Co1083   2.442       .  S
Cl833     Co1870   2.456       .  S
C834       C1036   1.485       .  S
C837        C936   1.556       .  S
C837        C946   1.579       .  S
C837        C959   1.572       .  S
C837        C969   1.549       .  S
C838        C916   1.614       .  S
C838        C926   1.565       .  S
C838        C956   1.587       .  S
C838       C1029   1.557       .  S
C839        C896   1.568       .  S
C839        C909   1.597       .  S
C839        C919   1.599       .  S
C839        C979   1.546       .  S
C840        C886   1.597       .  S
C840        C899   1.583       .  S
C840        C939   1.581       .  S
C840        C996   1.554       .  S
C841        C866   1.586       .  S
C841        C876   1.567       .  S
C841        C949   1.586       .  S
C841       C1016   1.562       .  S
C842        C859   1.588       .  S
C842        C869   1.595       .  S
C842        C889   1.597       .  S
C842        C986   1.559       .  S
C843        C846   1.595       .  S
C843        C856   1.589       .  S
C843        C906   1.610       .  S
C843       C1039   1.561       .  S
C844        C849   1.573       .  S
C844        C879   1.596       .  S
C844        C929   1.568       .  S
C844       C1009   1.556       .  S
C845        H852   1.078       .  S
C845        C846   1.425       .  A
C845        C850   1.415       .  A
C846        C847   1.426       .  A
C847        C848   1.388       .  A
C847        F854   1.349       .  S
C848        H853   1.076       .  S
C848        C849   1.400       .  A
C849        C850   1.418       .  A
C850        F851   1.354       .  S
C855        H862   1.062       .  S
C855        C856   1.407       .  A
C855        C860   1.381       .  A
C856        C857   1.434       .  A
C857        C858   1.430       .  A
C857        F864   1.355       .  S
C858        H863   1.083       .  S
C858        C859   1.417       .  A
C859        C860   1.405       .  A
C860        F861   1.351       .  S
C865        H872   1.079       .  S
C865        C866   1.419       .  A
C865        C870   1.398       .  A
C866        C867   1.412       .  A
C867        C868   1.415       .  A
C867        F874   1.357       .  S
C868        H873   1.083       .  S
C868        C869   1.429       .  A
C869        C870   1.415       .  A
C870        F871   1.346       .  S
C875        H882   1.081       .  S
C875        C876   1.418       .  A
C875        C880   1.433       .  A
C876        C877   1.404       .  A
C877        C878   1.362       .  A
C877        F884   1.351       .  S
C878        H883   1.064       .  S
C878        C879   1.410       .  A
C879        C880   1.431       .  A
C880        F881   1.353       .  S
C885        H892   1.059       .  S
C885        C886   1.407       .  A
C885        C890   1.384       .  A
C886        C887   1.428       .  A
C887        C888   1.429       .  A
C887        F894   1.356       .  S
C888        H893   1.075       .  S
C888        C889   1.424       .  A
C889        C890   1.416       .  A
C890        F891   1.349       .  S
C895        H902   1.083       .  S
C895        C896   1.396       .  A
C895        C900   1.380       .  A
C896        C897   1.420       .  A
C897        C898   1.417       .  A
C897        F904   1.357       .  S
C898        H903   1.082       .  S
C898        C899   1.425       .  A
C899        C900   1.415       .  A
C900        F901   1.330       .  S
C905        H912   1.071       .  S
C905        C906   1.426       .  A
C905        C910   1.419       .  A
C906        C907   1.429       .  A
C907        C908   1.403       .  A
C907        F914   1.357       .  S
C908        H913   1.078       .  S
C908        C909   1.418       .  A
C909        C910   1.401       .  A
C910        F911   1.359       .  S
C915        H922   1.072       .  S
C915        C916   1.422       .  A
C915        C920   1.399       .  A
C916        C917   1.418       .  A
C917        C918   1.414       .  A
C917        F924   1.347       .  S
C918        H923   1.075       .  S
C918        C919   1.425       .  A
C919        C920   1.416       .  A
C920        F921   1.342       .  S
C925        H932   1.084       .  S
C925        C926   1.403       .  A
C925        C930   1.373       .  A
C926        C927   1.417       .  A
C927        C928   1.413       .  A
C927        F934   1.357       .  S
C928        H933   1.082       .  S
C928        C929   1.426       .  A
C929        C930   1.414       .  A
C930        F931   1.354       .  S
C935        H942   1.080       .  S
C935        C936   1.414       .  A
C935        C940   1.418       .  A
C936        C937   1.411       .  A
C937        C938   1.365       .  A
C937        F944   1.357       .  S
C938        H943   1.068       .  S
C938        C939   1.410       .  A
C939        C940   1.427       .  A
C940        F941   1.354       .  S
C945        H952   1.083       .  S
C945        C946   1.405       .  A
C945        C950   1.409       .  A
C946        C947   1.422       .  A
C947        C948   1.397       .  A
C947        F954   1.356       .  S
C948        H953   1.071       .  S
C948        C949   1.412       .  A
C949        C950   1.427       .  A
C950        F951   1.358       .  S
C955        H962   1.073       .  S
C955        C956   1.411       .  A
C955        C960   1.406       .  A
C956        C957   1.428       .  A
C957        C958   1.385       .  A
C957        F964   1.351       .  S
C958        H963   1.067       .  S
C958        C959   1.402       .  A
C959        C960   1.422       .  A
C960        F961   1.358       .  S
C965        H972   1.084       .  S
C965        C966   1.398       .  A
C965        C970   1.399       .  A
C966        C967   1.393       .  A
C967        C968   1.393       .  A
C967        F974   1.358       .  S
C968        H973   1.080       .  S
C968        C969   1.421       .  A
C969        C970   1.417       .  A
C970        F971   1.354       .  S
C975        H982   1.084       .  S
C975        C976   1.397       .  A
C975        C980   1.398       .  A
C976        C977   1.398       .  A
C977        C978   1.391       .  A
C977        F984   1.358       .  S
C978        H983   1.080       .  S
C978        C979   1.417       .  A
C979        C980   1.419       .  A
C980        F981   1.353       .  S
C985        H992   1.078       .  S
C985        C986   1.419       .  A
C985        C990   1.391       .  A
C986        C987   1.420       .  A
C987        C988   1.403       .  A
C987        F994   1.355       .  S
C988        H993   1.083       .  S
C988        C989   1.402       .  A
C989        C990   1.401       .  A
C990        F991   1.358       .  S
C995       H1002   1.078       .  S
C995        C996   1.418       .  A
C995       C1000   1.398       .  A
C996        C997   1.418       .  A
C997        C998   1.400       .  A
C997       F1004   1.358       .  S
C998       H1003   1.083       .  S
C998        C999   1.399       .  A
C999       C1000   1.397       .  A
C1000      F1001   1.358       .  S
C1005      H1012   1.084       .  S
C1005      C1006   1.392       .  A
C1005      C1010   1.390       .  A
C1006      C1007   1.404       .  A
C1007      C1008   1.406       .  A
C1007      F1014   1.357       .  S
C1008      H1013   1.083       .  S
C1008      C1009   1.414       .  A
C1009      C1010   1.426       .  A
C1010      F1011   1.356       .  S
C1015      H1022   1.075       .  S
C1015      C1016   1.416       .  A
C1015      C1020   1.389       .  A
C1016      C1017   1.423       .  A
C1017      C1018   1.410       .  A
C1017      F1024   1.355       .  S
C1018      H1023   1.083       .  S
C1018      C1019   1.403       .  A
C1019      C1020   1.401       .  A
C1020      F1021   1.358       .  S
C1025      H1032   1.084       .  S
C1025      C1026   1.392       .  A
C1025      C1030   1.394       .  A
C1026      C1027   1.393       .  A
C1027      C1028   1.396       .  A
C1027      F1034   1.358       .  S
C1028      H1033   1.075       .  S
C1028      C1029   1.422       .  A
C1029      C1030   1.422       .  A
C1030      F1031   1.349       .  S
C1035      H1042   1.083       .  S
C1035      C1036   1.403       .  A
C1035      C1040   1.405       .  A
C1036      C1037   1.401       .  A
C1037      C1038   1.392       .  A
C1037      F1044   1.356       .  S
C1038      H1043   1.068       .  S
C1038      C1039   1.410       .  A
C1039      C1040   1.425       .  A
C1040      F1041   1.355       .  S
C1045      N1063   1.353       .  A
C1045      C1082   1.457       .  S
C1045      C1267   1.473       .  S
N1046      N1063   1.324       .  A
N1046      N1068   1.318       .  A
N1046     Co1083   2.092       .  S
C1047      N1072   1.341       .  A
C1047      C1085   1.457       .  S
C1047      H1092   1.081       .  S
H1048      C1089   1.081       .  S
C1049      N1073   1.337       .  A
C1049      C1053   1.455       .  S
C1049      H1078   1.082       .  S
Co1050     N1058   2.087       .  S
Co1050     N1588   2.072       .  S
Co1050    Cl1877   2.458       .  S
N1051      C1089   1.337       .  A
N1051      N1058   1.319       .  A
N1051     Co1835   2.071       .  S
Co1052     N1834   2.071   1_544  S
Co1052     N1577   2.087   1_545  S
Co1052     N1333   2.088   1_554  S
Co1052     N1059   2.080       .  S
Co1052    Cl1094   2.440       .  S
C1053      N1091   1.350       .  A
C1053      C1237   1.466       .  S
N1054      N1061   1.319       .  A
N1054      N1084   1.327       .  A
N1054     Co1609   2.093       .  S
N1055      N1073   1.319       .  A
N1055      N1091   1.324       .  A
N1055     Co1574   2.087       .  S
N1056      C1085   1.345       .  A
N1056      N1066   1.323       .  A
H1057      C1082   1.082       .  S
N1058      N1079   1.324       .  A
N1059      N1077   1.321       .  A
N1059      N1064   1.324       .  A
C1060      N1064   1.347       .  A
C1060      C1088   1.460       .  S
C1060      C1260   1.469       .  S
N1061      C1076   1.337       .  A
N1061     Co1344   2.077   1_554  S
C1062      N1090   1.350       .  A
C1062      C1065   1.470       .  S
C1062      H1096   1.081       .  S
C1065      N1086   1.347       .  A
C1065      C1280   1.484       .  S
N1066      N1072   1.321       .  A
N1066     Co1572   2.072   1_545  S
N1067      C1093   1.343       .  A
N1067      N1069   1.319       .  A
N1067     Co1866   2.088   1_554  S
N1068      C1082   1.341       .  A
N1069      N1097   1.322       .  A
N1069     Co1087   2.079       .  S
H1070      C1093   1.081       .  S
H1071      C1088   1.082       .  S
N1072     Co1313   2.088       .  S
N1074      N1086   1.320       .  A
N1074      N1090   1.320       .  A
N1074     Co1605   2.073       .  S
C1075      N1079   1.350       .  A
C1075      C1089   1.453       .  S
C1075      C1287   1.460       .  S
C1076      C1095   1.463       .  S
C1076      H1080   1.080       .  S
N1077      C1088   1.342       .  A
C1081      N1097   1.350       .  A
C1081      C1093   1.463       .  S
C1081      C1250   1.481       .  S
Co1083     N1322   2.077       .  S
Co1083     N1850   2.088       .  S
Co1083     N1596   2.073       .  S
N1084      C1095   1.353       .  A
C1085      C1227   1.462       .  S
Co1087     N1576   2.093   1_545  S
Cl1094    Co1833   2.458   1_544  S
C1095      C1297   1.485       .  S
C1098      C1197   1.556       .  S
C1098      C1207   1.579       .  S
C1098      C1220   1.572       .  S
C1098      C1230   1.549       .  S
C1099      C1177   1.614       .  S
C1099      C1187   1.565       .  S
C1099      C1217   1.587       .  S
C1099      C1290   1.557       .  S
C1100      C1157   1.568       .  S
C1100      C1170   1.597       .  S
C1100      C1180   1.599       .  S
C1100      C1240   1.546       .  S
C1101      C1147   1.597       .  S
C1101      C1160   1.583       .  S
C1101      C1200   1.581       .  S
C1101      C1257   1.554       .  S
C1102      C1127   1.586       .  S
C1102      C1137   1.567       .  S
C1102      C1210   1.586       .  S
C1102      C1277   1.562       .  S
C1103      C1120   1.588       .  S
C1103      C1130   1.595       .  S
C1103      C1150   1.597       .  S
C1103      C1247   1.559       .  S
C1104      C1107   1.595       .  S
C1104      C1117   1.589       .  S
C1104      C1167   1.610       .  S
C1104      C1300   1.561       .  S
C1105      C1110   1.573       .  S
C1105      C1140   1.596       .  S
C1105      C1190   1.568       .  S
C1105      C1270   1.556       .  S
C1106      H1113   1.078       .  S
C1106      C1107   1.425       .  A
C1106      C1111   1.415       .  A
C1107      C1108   1.426       .  A
C1108      C1109   1.388       .  A
C1108      F1115   1.349       .  S
C1109      H1114   1.076       .  S
C1109      C1110   1.400       .  A
C1110      C1111   1.418       .  A
C1111      F1112   1.354       .  S
C1116      H1123   1.062       .  S
C1116      C1117   1.407       .  A
C1116      C1121   1.381       .  A
C1117      C1118   1.434       .  A
C1118      C1119   1.430       .  A
C1118      F1125   1.355       .  S
C1119      H1124   1.083       .  S
C1119      C1120   1.417       .  A
C1120      C1121   1.405       .  A
C1121      F1122   1.351       .  S
C1126      H1133   1.079       .  S
C1126      C1127   1.419       .  A
C1126      C1131   1.398       .  A
C1127      C1128   1.412       .  A
C1128      C1129   1.415       .  A
C1128      F1135   1.357       .  S
C1129      H1134   1.083       .  S
C1129      C1130   1.429       .  A
C1130      C1131   1.415       .  A
C1131      F1132   1.346       .  S
C1136      H1143   1.081       .  S
C1136      C1137   1.418       .  A
C1136      C1141   1.433       .  A
C1137      C1138   1.404       .  A
C1138      C1139   1.362       .  A
C1138      F1145   1.351       .  S
C1139      H1144   1.064       .  S
C1139      C1140   1.410       .  A
C1140      C1141   1.431       .  A
C1141      F1142   1.353       .  S
C1146      H1153   1.059       .  S
C1146      C1147   1.407       .  A
C1146      C1151   1.384       .  A
C1147      C1148   1.428       .  A
C1148      C1149   1.429       .  A
C1148      F1155   1.356       .  S
C1149      H1154   1.075       .  S
C1149      C1150   1.424       .  A
C1150      C1151   1.416       .  A
C1151      F1152   1.349       .  S
C1156      H1163   1.083       .  S
C1156      C1157   1.396       .  A
C1156      C1161   1.380       .  A
C1157      C1158   1.420       .  A
C1158      C1159   1.417       .  A
C1158      F1165   1.357       .  S
C1159      H1164   1.082       .  S
C1159      C1160   1.425       .  A
C1160      C1161   1.415       .  A
C1161      F1162   1.330       .  S
C1166      H1173   1.071       .  S
C1166      C1167   1.426       .  A
C1166      C1171   1.419       .  A
C1167      C1168   1.429       .  A
C1168      C1169   1.403       .  A
C1168      F1175   1.357       .  S
C1169      H1174   1.078       .  S
C1169      C1170   1.418       .  A
C1170      C1171   1.401       .  A
C1171      F1172   1.359       .  S
C1176      H1183   1.072       .  S
C1176      C1177   1.422       .  A
C1176      C1181   1.399       .  A
C1177      C1178   1.418       .  A
C1178      C1179   1.414       .  A
C1178      F1185   1.347       .  S
C1179      H1184   1.075       .  S
C1179      C1180   1.425       .  A
C1180      C1181   1.416       .  A
C1181      F1182   1.342       .  S
C1186      H1193   1.084       .  S
C1186      C1187   1.403       .  A
C1186      C1191   1.373       .  A
C1187      C1188   1.417       .  A
C1188      C1189   1.413       .  A
C1188      F1195   1.357       .  S
C1189      H1194   1.082       .  S
C1189      C1190   1.426       .  A
C1190      C1191   1.414       .  A
C1191      F1192   1.354       .  S
C1196      H1203   1.080       .  S
C1196      C1197   1.414       .  A
C1196      C1201   1.418       .  A
C1197      C1198   1.411       .  A
C1198      C1199   1.365       .  A
C1198      F1205   1.357       .  S
C1199      H1204   1.068       .  S
C1199      C1200   1.410       .  A
C1200      C1201   1.427       .  A
C1201      F1202   1.354       .  S
C1206      H1213   1.083       .  S
C1206      C1207   1.405       .  A
C1206      C1211   1.409       .  A
C1207      C1208   1.422       .  A
C1208      C1209   1.397       .  A
C1208      F1215   1.356       .  S
C1209      H1214   1.071       .  S
C1209      C1210   1.412       .  A
C1210      C1211   1.427       .  A
C1211      F1212   1.358       .  S
C1216      H1223   1.073       .  S
C1216      C1217   1.411       .  A
C1216      C1221   1.406       .  A
C1217      C1218   1.428       .  A
C1218      C1219   1.385       .  A
C1218      F1225   1.351       .  S
C1219      H1224   1.067       .  S
C1219      C1220   1.402       .  A
C1220      C1221   1.422       .  A
C1221      F1222   1.358       .  S
C1226      H1233   1.084       .  S
C1226      C1227   1.398       .  A
C1226      C1231   1.399       .  A
C1227      C1228   1.393       .  A
C1228      C1229   1.393       .  A
C1228      F1235   1.358       .  S
C1229      H1234   1.080       .  S
C1229      C1230   1.421       .  A
C1230      C1231   1.417       .  A
C1231      F1232   1.354       .  S
C1236      H1243   1.084       .  S
C1236      C1237   1.397       .  A
C1236      C1241   1.398       .  A
C1237      C1238   1.398       .  A
C1238      C1239   1.391       .  A
C1238      F1245   1.358       .  S
C1239      H1244   1.080       .  S
C1239      C1240   1.417       .  A
C1240      C1241   1.419       .  A
C1241      F1242   1.353       .  S
C1246      H1253   1.078       .  S
C1246      C1247   1.419       .  A
C1246      C1251   1.391       .  A
C1247      C1248   1.420       .  A
C1248      C1249   1.403       .  A
C1248      F1255   1.355       .  S
C1249      H1254   1.083       .  S
C1249      C1250   1.402       .  A
C1250      C1251   1.401       .  A
C1251      F1252   1.358       .  S
C1256      H1263   1.078       .  S
C1256      C1257   1.418       .  A
C1256      C1261   1.398       .  A
C1257      C1258   1.418       .  A
C1258      C1259   1.400       .  A
C1258      F1265   1.358       .  S
C1259      H1264   1.083       .  S
C1259      C1260   1.399       .  A
C1260      C1261   1.397       .  A
C1261      F1262   1.358       .  S
C1266      H1273   1.084       .  S
C1266      C1267   1.392       .  A
C1266      C1271   1.390       .  A
C1267      C1268   1.404       .  A
C1268      C1269   1.406       .  A
C1268      F1275   1.357       .  S
C1269      H1274   1.083       .  S
C1269      C1270   1.414       .  A
C1270      C1271   1.426       .  A
C1271      F1272   1.356       .  S
C1276      H1283   1.075       .  S
C1276      C1277   1.416       .  A
C1276      C1281   1.389       .  A
C1277      C1278   1.423       .  A
C1278      C1279   1.410       .  A
C1278      F1285   1.355       .  S
C1279      H1284   1.083       .  S
C1279      C1280   1.403       .  A
C1280      C1281   1.401       .  A
C1281      F1282   1.358       .  S
C1286      H1293   1.084       .  S
C1286      C1287   1.392       .  A
C1286      C1291   1.394       .  A
C1287      C1288   1.393       .  A
C1288      C1289   1.396       .  A
C1288      F1295   1.358       .  S
C1289      H1294   1.075       .  S
C1289      C1290   1.422       .  A
C1290      C1291   1.422       .  A
C1291      F1292   1.349       .  S
C1296      H1303   1.083       .  S
C1296      C1297   1.403       .  A
C1296      C1301   1.405       .  A
C1297      C1298   1.401       .  A
C1298      C1299   1.392       .  A
C1298      F1305   1.356       .  S
C1299      H1304   1.068       .  S
C1299      C1300   1.410       .  A
C1300      C1301   1.425       .  A
C1301      F1302   1.355       .  S
C1306      N1324   1.353       .  A
C1306      C1343   1.457       .  S
C1306      C1528   1.473       .  S
N1307      N1324   1.324       .  A
N1307      N1329   1.318       .  A
N1307     Co1344   2.092       .  S
C1308      N1333   1.341       .  A
C1308      C1346   1.457       .  S
C1308      H1353   1.081       .  S
H1309      C1350   1.081       .  S
C1310      N1334   1.337       .  A
C1310      C1314   1.455       .  S
C1310      H1339   1.082       .  S
Co1311     N1319   2.087       .  S
Co1311     N1849   2.072       .  S
Co1311    Cl1616   2.458   1_556  S
N1312      C1350   1.337       .  A
N1312      N1319   1.319       .  A
N1312     Co1574   2.071   1_556  S
Co1313     N1573   2.071   1_545  S
Co1313     N1838   2.087   1_545  S
Co1313     N1320   2.080       .  S
Co1313    Cl1355   2.440       .  S
C1314      N1352   1.350       .  A
C1314      C1498   1.466       .  S
N1315      N1322   1.319       .  A
N1315      N1345   1.327       .  A
N1315     Co1870   2.093       .  S
N1316      N1334   1.319       .  A
N1316      N1352   1.324       .  A
N1316     Co1835   2.087       .  S
N1317      C1346   1.345       .  A
N1317      N1327   1.323       .  A
H1318      C1343   1.082       .  S
N1319      N1340   1.324       .  A
N1320      N1338   1.321       .  A
N1320      N1325   1.324       .  A
C1321      N1325   1.347       .  A
C1321      C1349   1.460       .  S
C1321      C1521   1.469       .  S
N1322      C1337   1.337       .  A
C1323      N1351   1.350       .  A
C1323      C1326   1.470       .  S
C1323      H1357   1.081       .  S
C1326      N1347   1.347       .  A
C1326      C1541   1.484       .  S
N1327      N1333   1.321       .  A
N1327     Co1833   2.072   1_545  S
N1328      C1354   1.343       .  A
N1328      N1330   1.319       .  A
N1328     Co1605   2.088       .  S
N1329      C1343   1.341       .  A
N1330      N1358   1.322       .  A
N1330     Co1348   2.079       .  S
H1331      C1354   1.081       .  S
H1332      C1349   1.082       .  S
N1335      N1347   1.320       .  A
N1335      N1351   1.320       .  A
N1335     Co1866   2.073       .  S
C1336      N1340   1.350       .  A
C1336      C1350   1.453       .  S
C1336      C1548   1.460       .  S
C1337      C1356   1.463       .  S
C1337      H1341   1.080       .  S
N1338      C1349   1.342       .  A
C1342      N1358   1.350       .  A
C1342      C1354   1.463       .  S
C1342      C1511   1.481       .  S
Co1344     N1589   2.088   1_556  S
Co1344     N1857   2.073       .  S
N1345      C1356   1.353       .  A
C1346      C1488   1.462       .  S
Co1348     N1837   2.093   1_545  S
Cl1355    Co1572   2.458   1_545  S
C1356      C1558   1.485       .  S
C1359      C1458   1.556       .  S
C1359      C1468   1.579       .  S
C1359      C1481   1.572       .  S
C1359      C1491   1.549       .  S
C1360      C1438   1.614       .  S
C1360      C1448   1.565       .  S
C1360      C1478   1.587       .  S
C1360      C1551   1.557       .  S
C1361      C1418   1.568       .  S
C1361      C1431   1.597       .  S
C1361      C1441   1.599       .  S
C1361      C1501   1.546       .  S
C1362      C1408   1.597       .  S
C1362      C1421   1.583       .  S
C1362      C1461   1.581       .  S
C1362      C1518   1.554       .  S
C1363      C1388   1.586       .  S
C1363      C1398   1.567       .  S
C1363      C1471   1.586       .  S
C1363      C1538   1.562       .  S
C1364      C1381   1.588       .  S
C1364      C1391   1.595       .  S
C1364      C1411   1.597       .  S
C1364      C1508   1.559       .  S
C1365      C1368   1.595       .  S
C1365      C1378   1.589       .  S
C1365      C1428   1.610       .  S
C1365      C1561   1.561       .  S
C1366      C1371   1.573       .  S
C1366      C1401   1.596       .  S
C1366      C1451   1.568       .  S
C1366      C1531   1.556       .  S
C1367      H1374   1.078       .  S
C1367      C1368   1.425       .  A
C1367      C1372   1.415       .  A
C1368      C1369   1.426       .  A
C1369      C1370   1.388       .  A
C1369      F1376   1.349       .  S
C1370      H1375   1.076       .  S
C1370      C1371   1.400       .  A
C1371      C1372   1.418       .  A
C1372      F1373   1.354       .  S
C1377      H1384   1.062       .  S
C1377      C1378   1.407       .  A
C1377      C1382   1.381       .  A
C1378      C1379   1.434       .  A
C1379      C1380   1.430       .  A
C1379      F1386   1.355       .  S
C1380      H1385   1.083       .  S
C1380      C1381   1.417       .  A
C1381      C1382   1.405       .  A
C1382      F1383   1.351       .  S
C1387      H1394   1.079       .  S
C1387      C1388   1.419       .  A
C1387      C1392   1.398       .  A
C1388      C1389   1.412       .  A
C1389      C1390   1.415       .  A
C1389      F1396   1.357       .  S
C1390      H1395   1.083       .  S
C1390      C1391   1.429       .  A
C1391      C1392   1.415       .  A
C1392      F1393   1.346       .  S
C1397      H1404   1.081       .  S
C1397      C1398   1.418       .  A
C1397      C1402   1.433       .  A
C1398      C1399   1.404       .  A
C1399      C1400   1.362       .  A
C1399      F1406   1.351       .  S
C1400      H1405   1.064       .  S
C1400      C1401   1.410       .  A
C1401      C1402   1.431       .  A
C1402      F1403   1.353       .  S
C1407      H1414   1.059       .  S
C1407      C1408   1.407       .  A
C1407      C1412   1.384       .  A
C1408      C1409   1.428       .  A
C1409      C1410   1.429       .  A
C1409      F1416   1.356       .  S
C1410      H1415   1.075       .  S
C1410      C1411   1.424       .  A
C1411      C1412   1.416       .  A
C1412      F1413   1.349       .  S
C1417      H1424   1.083       .  S
C1417      C1418   1.396       .  A
C1417      C1422   1.380       .  A
C1418      C1419   1.420       .  A
C1419      C1420   1.417       .  A
C1419      F1426   1.357       .  S
C1420      H1425   1.082       .  S
C1420      C1421   1.425       .  A
C1421      C1422   1.415       .  A
C1422      F1423   1.330       .  S
C1427      H1434   1.071       .  S
C1427      C1428   1.426       .  A
C1427      C1432   1.419       .  A
C1428      C1429   1.429       .  A
C1429      C1430   1.403       .  A
C1429      F1436   1.357       .  S
C1430      H1435   1.078       .  S
C1430      C1431   1.418       .  A
C1431      C1432   1.401       .  A
C1432      F1433   1.359       .  S
C1437      H1444   1.072       .  S
C1437      C1438   1.422       .  A
C1437      C1442   1.399       .  A
C1438      C1439   1.418       .  A
C1439      C1440   1.414       .  A
C1439      F1446   1.347       .  S
C1440      H1445   1.075       .  S
C1440      C1441   1.425       .  A
C1441      C1442   1.416       .  A
C1442      F1443   1.342       .  S
C1447      H1454   1.084       .  S
C1447      C1448   1.403       .  A
C1447      C1452   1.373       .  A
C1448      C1449   1.417       .  A
C1449      C1450   1.413       .  A
C1449      F1456   1.357       .  S
C1450      H1455   1.082       .  S
C1450      C1451   1.426       .  A
C1451      C1452   1.414       .  A
C1452      F1453   1.354       .  S
C1457      H1464   1.080       .  S
C1457      C1458   1.414       .  A
C1457      C1462   1.418       .  A
C1458      C1459   1.411       .  A
C1459      C1460   1.365       .  A
C1459      F1466   1.357       .  S
C1460      H1465   1.068       .  S
C1460      C1461   1.410       .  A
C1461      C1462   1.427       .  A
C1462      F1463   1.354       .  S
C1467      H1474   1.083       .  S
C1467      C1468   1.405       .  A
C1467      C1472   1.409       .  A
C1468      C1469   1.422       .  A
C1469      C1470   1.397       .  A
C1469      F1476   1.356       .  S
C1470      H1475   1.071       .  S
C1470      C1471   1.412       .  A
C1471      C1472   1.427       .  A
C1472      F1473   1.358       .  S
C1477      H1484   1.073       .  S
C1477      C1478   1.411       .  A
C1477      C1482   1.406       .  A
C1478      C1479   1.428       .  A
C1479      C1480   1.385       .  A
C1479      F1486   1.351       .  S
C1480      H1485   1.067       .  S
C1480      C1481   1.402       .  A
C1481      C1482   1.422       .  A
C1482      F1483   1.358       .  S
C1487      H1494   1.084       .  S
C1487      C1488   1.398       .  A
C1487      C1492   1.399       .  A
C1488      C1489   1.393       .  A
C1489      C1490   1.393       .  A
C1489      F1496   1.358       .  S
C1490      H1495   1.080       .  S
C1490      C1491   1.421       .  A
C1491      C1492   1.417       .  A
C1492      F1493   1.354       .  S
C1497      H1504   1.084       .  S
C1497      C1498   1.397       .  A
C1497      C1502   1.398       .  A
C1498      C1499   1.398       .  A
C1499      C1500   1.391       .  A
C1499      F1506   1.358       .  S
C1500      H1505   1.080       .  S
C1500      C1501   1.417       .  A
C1501      C1502   1.419       .  A
C1502      F1503   1.353       .  S
C1507      H1514   1.078       .  S
C1507      C1508   1.419       .  A
C1507      C1512   1.391       .  A
C1508      C1509   1.420       .  A
C1509      C1510   1.403       .  A
C1509      F1516   1.355       .  S
C1510      H1515   1.083       .  S
C1510      C1511   1.402       .  A
C1511      C1512   1.401       .  A
C1512      F1513   1.358       .  S
C1517      H1524   1.078       .  S
C1517      C1518   1.418       .  A
C1517      C1522   1.398       .  A
C1518      C1519   1.418       .  A
C1519      C1520   1.400       .  A
C1519      F1526   1.358       .  S
C1520      H1525   1.083       .  S
C1520      C1521   1.399       .  A
C1521      C1522   1.397       .  A
C1522      F1523   1.358       .  S
C1527      H1534   1.084       .  S
C1527      C1528   1.392       .  A
C1527      C1532   1.390       .  A
C1528      C1529   1.404       .  A
C1529      C1530   1.406       .  A
C1529      F1536   1.357       .  S
C1530      H1535   1.083       .  S
C1530      C1531   1.414       .  A
C1531      C1532   1.426       .  A
C1532      F1533   1.356       .  S
C1537      H1544   1.075       .  S
C1537      C1538   1.416       .  A
C1537      C1542   1.389       .  A
C1538      C1539   1.423       .  A
C1539      C1540   1.410       .  A
C1539      F1546   1.355       .  S
C1540      H1545   1.083       .  S
C1540      C1541   1.403       .  A
C1541      C1542   1.401       .  A
C1542      F1543   1.358       .  S
C1547      H1554   1.084       .  S
C1547      C1548   1.392       .  A
C1547      C1552   1.394       .  A
C1548      C1549   1.393       .  A
C1549      C1550   1.396       .  A
C1549      F1556   1.358       .  S
C1550      H1555   1.075       .  S
C1550      C1551   1.422       .  A
C1551      C1552   1.422       .  A
C1552      F1553   1.349       .  S
C1557      H1564   1.083       .  S
C1557      C1558   1.403       .  A
C1557      C1562   1.405       .  A
C1558      C1559   1.401       .  A
C1559      C1560   1.392       .  A
C1559      F1566   1.356       .  S
C1560      H1565   1.068       .  S
C1560      C1561   1.410       .  A
C1561      C1562   1.425       .  A
C1562      F1563   1.355       .  S
C1567      N1585   1.353       .  A
C1567      C1604   1.457       .  S
C1567      C1789   1.473       .  S
N1568      N1585   1.324       .  A
N1568      N1590   1.318       .  A
N1568     Co1605   2.092   1_565  S
C1569      N1594   1.341       .  A
C1569      C1607   1.457       .  S
C1569      H1614   1.081       .  S
H1570      C1611   1.081       .  S
C1571      N1595   1.337       .  A
C1571      C1575   1.455       .  S
C1571      H1600   1.082       .  S
Co1572     N1580   2.087       .  S
N1573      C1611   1.337       .  A
N1573      N1580   1.319       .  A
Co1574     N1855   2.088   1_554  S
Co1574     N1581   2.080       .  S
Co1574    Cl1616   2.440       .  S
C1575      N1613   1.350       .  A
C1575      C1759   1.466       .  S
N1576      N1583   1.319       .  A
N1576      N1606   1.327       .  A
N1577      N1595   1.319       .  A
N1577      N1613   1.324       .  A
N1578      C1607   1.345       .  A
N1578      N1588   1.323       .  A
H1579      C1604   1.082       .  S
N1580      N1601   1.324       .  A
N1581      N1599   1.321       .  A
N1581      N1586   1.324       .  A
C1582      N1586   1.347       .  A
C1582      C1610   1.460       .  S
C1582      C1782   1.469       .  S
N1583      C1598   1.337       .  A
N1583     Co1866   2.077   1_564  S
C1584      N1612   1.350       .  A
C1584      C1587   1.470       .  S
C1584      H1618   1.081       .  S
C1587      N1608   1.347       .  A
C1587      C1802   1.484       .  S
N1588      N1594   1.321       .  A
N1589      C1615   1.343       .  A
N1589      N1591   1.319       .  A
N1590      C1604   1.341       .  A
N1591      N1619   1.322       .  A
N1591     Co1609   2.079       .  S
H1592      C1615   1.081       .  S
H1593      C1610   1.082       .  S
N1594     Co1835   2.088       .  S
N1596      N1608   1.320       .  A
N1596      N1612   1.320       .  A
C1597      N1601   1.350       .  A
C1597      C1611   1.453       .  S
C1597      C1809   1.460       .  S
C1598      C1617   1.463       .  S
C1598      H1602   1.080       .  S
N1599      C1610   1.342       .  A
C1603      N1619   1.350       .  A
C1603      C1615   1.463       .  S
C1603      C1772   1.481       .  S
Co1605     N1844   2.077   1_545  S
N1606      C1617   1.353       .  A
C1607      C1749   1.462       .  S
C1617      C1819   1.485       .  S
C1620      C1719   1.556       .  S
C1620      C1729   1.579       .  S
C1620      C1742   1.572       .  S
C1620      C1752   1.549       .  S
C1621      C1699   1.614       .  S
C1621      C1709   1.565       .  S
C1621      C1739   1.587       .  S
C1621      C1812   1.557       .  S
C1622      C1679   1.568       .  S
C1622      C1692   1.597       .  S
C1622      C1702   1.599       .  S
C1622      C1762   1.546       .  S
C1623      C1669   1.597       .  S
C1623      C1682   1.583       .  S
C1623      C1722   1.581       .  S
C1623      C1779   1.554       .  S
C1624      C1649   1.586       .  S
C1624      C1659   1.567       .  S
C1624      C1732   1.586       .  S
C1624      C1799   1.562       .  S
C1625      C1642   1.588       .  S
C1625      C1652   1.595       .  S
C1625      C1672   1.597       .  S
C1625      C1769   1.559       .  S
C1626      C1629   1.595       .  S
C1626      C1639   1.589       .  S
C1626      C1689   1.610       .  S
C1626      C1822   1.561       .  S
C1627      C1632   1.573       .  S
C1627      C1662   1.596       .  S
C1627      C1712   1.568       .  S
C1627      C1792   1.556       .  S
C1628      H1635   1.078       .  S
C1628      C1629   1.425       .  A
C1628      C1633   1.415       .  A
C1629      C1630   1.426       .  A
C1630      C1631   1.388       .  A
C1630      F1637   1.349       .  S
C1631      H1636   1.076       .  S
C1631      C1632   1.400       .  A
C1632      C1633   1.418       .  A
C1633      F1634   1.354       .  S
C1638      H1645   1.062       .  S
C1638      C1639   1.407       .  A
C1638      C1643   1.381       .  A
C1639      C1640   1.434       .  A
C1640      C1641   1.430       .  A
C1640      F1647   1.355       .  S
C1641      H1646   1.083       .  S
C1641      C1642   1.417       .  A
C1642      C1643   1.405       .  A
C1643      F1644   1.351       .  S
C1648      H1655   1.079       .  S
C1648      C1649   1.419       .  A
C1648      C1653   1.398       .  A
C1649      C1650   1.412       .  A
C1650      C1651   1.415       .  A
C1650      F1657   1.357       .  S
C1651      H1656   1.083       .  S
C1651      C1652   1.429       .  A
C1652      C1653   1.415       .  A
C1653      F1654   1.346       .  S
C1658      H1665   1.081       .  S
C1658      C1659   1.418       .  A
C1658      C1663   1.433       .  A
C1659      C1660   1.404       .  A
C1660      C1661   1.362       .  A
C1660      F1667   1.351       .  S
C1661      H1666   1.064       .  S
C1661      C1662   1.410       .  A
C1662      C1663   1.431       .  A
C1663      F1664   1.353       .  S
C1668      H1675   1.059       .  S
C1668      C1669   1.407       .  A
C1668      C1673   1.384       .  A
C1669      C1670   1.428       .  A
C1670      C1671   1.429       .  A
C1670      F1677   1.356       .  S
C1671      H1676   1.075       .  S
C1671      C1672   1.424       .  A
C1672      C1673   1.416       .  A
C1673      F1674   1.349       .  S
C1678      H1685   1.083       .  S
C1678      C1679   1.396       .  A
C1678      C1683   1.380       .  A
C1679      C1680   1.420       .  A
C1680      C1681   1.417       .  A
C1680      F1687   1.357       .  S
C1681      H1686   1.082       .  S
C1681      C1682   1.425       .  A
C1682      C1683   1.415       .  A
C1683      F1684   1.330       .  S
C1688      H1695   1.071       .  S
C1688      C1689   1.426       .  A
C1688      C1693   1.419       .  A
C1689      C1690   1.429       .  A
C1690      C1691   1.403       .  A
C1690      F1697   1.357       .  S
C1691      H1696   1.078       .  S
C1691      C1692   1.418       .  A
C1692      C1693   1.401       .  A
C1693      F1694   1.359       .  S
C1698      H1705   1.072       .  S
C1698      C1699   1.422       .  A
C1698      C1703   1.399       .  A
C1699      C1700   1.418       .  A
C1700      C1701   1.414       .  A
C1700      F1707   1.347       .  S
C1701      H1706   1.075       .  S
C1701      C1702   1.425       .  A
C1702      C1703   1.416       .  A
C1703      F1704   1.342       .  S
C1708      H1715   1.084       .  S
C1708      C1709   1.403       .  A
C1708      C1713   1.373       .  A
C1709      C1710   1.417       .  A
C1710      C1711   1.413       .  A
C1710      F1717   1.357       .  S
C1711      H1716   1.082       .  S
C1711      C1712   1.426       .  A
C1712      C1713   1.414       .  A
C1713      F1714   1.354       .  S
C1718      H1725   1.080       .  S
C1718      C1719   1.414       .  A
C1718      C1723   1.418       .  A
C1719      C1720   1.411       .  A
C1720      C1721   1.365       .  A
C1720      F1727   1.357       .  S
C1721      H1726   1.068       .  S
C1721      C1722   1.410       .  A
C1722      C1723   1.427       .  A
C1723      F1724   1.354       .  S
C1728      H1735   1.083       .  S
C1728      C1729   1.405       .  A
C1728      C1733   1.409       .  A
C1729      C1730   1.422       .  A
C1730      C1731   1.397       .  A
C1730      F1737   1.356       .  S
C1731      H1736   1.071       .  S
C1731      C1732   1.412       .  A
C1732      C1733   1.427       .  A
C1733      F1734   1.358       .  S
C1738      H1745   1.073       .  S
C1738      C1739   1.411       .  A
C1738      C1743   1.406       .  A
C1739      C1740   1.428       .  A
C1740      C1741   1.385       .  A
C1740      F1747   1.351       .  S
C1741      H1746   1.067       .  S
C1741      C1742   1.402       .  A
C1742      C1743   1.422       .  A
C1743      F1744   1.358       .  S
C1748      H1755   1.084       .  S
C1748      C1749   1.398       .  A
C1748      C1753   1.399       .  A
C1749      C1750   1.393       .  A
C1750      C1751   1.393       .  A
C1750      F1757   1.358       .  S
C1751      H1756   1.080       .  S
C1751      C1752   1.421       .  A
C1752      C1753   1.417       .  A
C1753      F1754   1.354       .  S
C1758      H1765   1.084       .  S
C1758      C1759   1.397       .  A
C1758      C1763   1.398       .  A
C1759      C1760   1.398       .  A
C1760      C1761   1.391       .  A
C1760      F1767   1.358       .  S
C1761      H1766   1.080       .  S
C1761      C1762   1.417       .  A
C1762      C1763   1.419       .  A
C1763      F1764   1.353       .  S
C1768      H1775   1.078       .  S
C1768      C1769   1.419       .  A
C1768      C1773   1.391       .  A
C1769      C1770   1.420       .  A
C1770      C1771   1.403       .  A
C1770      F1777   1.355       .  S
C1771      H1776   1.083       .  S
C1771      C1772   1.402       .  A
C1772      C1773   1.401       .  A
C1773      F1774   1.358       .  S
C1778      H1785   1.078       .  S
C1778      C1779   1.418       .  A
C1778      C1783   1.398       .  A
C1779      C1780   1.418       .  A
C1780      C1781   1.400       .  A
C1780      F1787   1.358       .  S
C1781      H1786   1.083       .  S
C1781      C1782   1.399       .  A
C1782      C1783   1.397       .  A
C1783      F1784   1.358       .  S
C1788      H1795   1.084       .  S
C1788      C1789   1.392       .  A
C1788      C1793   1.390       .  A
C1789      C1790   1.404       .  A
C1790      C1791   1.406       .  A
C1790      F1797   1.357       .  S
C1791      H1796   1.083       .  S
C1791      C1792   1.414       .  A
C1792      C1793   1.426       .  A
C1793      F1794   1.356       .  S
C1798      H1805   1.075       .  S
C1798      C1799   1.416       .  A
C1798      C1803   1.389       .  A
C1799      C1800   1.423       .  A
C1800      C1801   1.410       .  A
C1800      F1807   1.355       .  S
C1801      H1806   1.083       .  S
C1801      C1802   1.403       .  A
C1802      C1803   1.401       .  A
C1803      F1804   1.358       .  S
C1808      H1815   1.084       .  S
C1808      C1809   1.392       .  A
C1808      C1813   1.394       .  A
C1809      C1810   1.393       .  A
C1810      C1811   1.396       .  A
C1810      F1817   1.358       .  S
C1811      H1816   1.075       .  S
C1811      C1812   1.422       .  A
C1812      C1813   1.422       .  A
C1813      F1814   1.349       .  S
C1818      H1825   1.083       .  S
C1818      C1819   1.403       .  A
C1818      C1823   1.405       .  A
C1819      C1820   1.401       .  A
C1820      C1821   1.392       .  A
C1820      F1827   1.356       .  S
C1821      H1826   1.068       .  S
C1821      C1822   1.410       .  A
C1822      C1823   1.425       .  A
C1823      F1824   1.355       .  S
C1828      N1846   1.353       .  A
C1828      C1865   1.457       .  S
C1828      C2050   1.473       .  S
N1829      N1846   1.324       .  A
N1829      N1851   1.318       .  A
N1829     Co1866   2.092   1_565  S
C1830      N1855   1.341       .  A
C1830      C1868   1.457       .  S
C1830      H1875   1.081       .  S
H1831      C1872   1.081       .  S
C1832      N1856   1.337       .  A
C1832      C1836   1.455       .  S
C1832      H1861   1.082       .  S
Co1833     N1841   2.087       .  S
N1834      C1872   1.337       .  A
N1834      N1841   1.319       .  A
Co1835     N1842   2.080       .  S
Co1835    Cl1877   2.440       .  S
C1836      N1874   1.350       .  A
C1836      C2020   1.466       .  S
N1837      N1844   1.319       .  A
N1837      N1867   1.327       .  A
N1838      N1856   1.319       .  A
N1838      N1874   1.324       .  A
N1839      C1868   1.345       .  A
N1839      N1849   1.323       .  A
H1840      C1865   1.082       .  S
N1841      N1862   1.324       .  A
N1842      N1860   1.321       .  A
N1842      N1847   1.324       .  A
C1843      N1847   1.347       .  A
C1843      C1871   1.460       .  S
C1843      C2043   1.469       .  S
N1844      C1859   1.337       .  A
C1845      N1873   1.350       .  A
C1845      C1848   1.470       .  S
C1845      H1879   1.081       .  S
C1848      N1869   1.347       .  A
C1848      C2063   1.484       .  S
N1849      N1855   1.321       .  A
N1850      C1876   1.343       .  A
N1850      N1852   1.319       .  A
N1851      C1865   1.341       .  A
N1852      N1880   1.322       .  A
N1852     Co1870   2.079       .  S
H1853      C1876   1.081       .  S
H1854      C1871   1.082       .  S
N1857      N1869   1.320       .  A
N1857      N1873   1.320       .  A
C1858      N1862   1.350       .  A
C1858      C1872   1.453       .  S
C1858      C2070   1.460       .  S
C1859      C1878   1.463       .  S
C1859      H1863   1.080       .  S
N1860      C1871   1.342       .  A
C1864      N1880   1.350       .  A
C1864      C1876   1.463       .  S
C1864      C2033   1.481       .  S
N1867      C1878   1.353       .  A
C1868      C2010   1.462       .  S
C1878      C2080   1.485       .  S
C1881      C1980   1.556       .  S
C1881      C1990   1.579       .  S
C1881      C2003   1.572       .  S
C1881      C2013   1.549       .  S
C1882      C1960   1.614       .  S
C1882      C1970   1.565       .  S
C1882      C2000   1.587       .  S
C1882      C2073   1.557       .  S
C1883      C1940   1.568       .  S
C1883      C1953   1.597       .  S
C1883      C1963   1.599       .  S
C1883      C2023   1.546       .  S
C1884      C1930   1.597       .  S
C1884      C1943   1.583       .  S
C1884      C1983   1.581       .  S
C1884      C2040   1.554       .  S
C1885      C1910   1.586       .  S
C1885      C1920   1.567       .  S
C1885      C1993   1.586       .  S
C1885      C2060   1.562       .  S
C1886      C1903   1.588       .  S
C1886      C1913   1.595       .  S
C1886      C1933   1.597       .  S
C1886      C2030   1.559       .  S
C1887      C1890   1.595       .  S
C1887      C1900   1.589       .  S
C1887      C1950   1.610       .  S
C1887      C2083   1.561       .  S
C1888      C1893   1.573       .  S
C1888      C1923   1.596       .  S
C1888      C1973   1.568       .  S
C1888      C2053   1.556       .  S
C1889      H1896   1.078       .  S
C1889      C1890   1.425       .  A
C1889      C1894   1.415       .  A
C1890      C1891   1.426       .  A
C1891      C1892   1.388       .  A
C1891      F1898   1.349       .  S
C1892      H1897   1.076       .  S
C1892      C1893   1.400       .  A
C1893      C1894   1.418       .  A
C1894      F1895   1.354       .  S
C1899      H1906   1.062       .  S
C1899      C1900   1.407       .  A
C1899      C1904   1.381       .  A
C1900      C1901   1.434       .  A
C1901      C1902   1.430       .  A
C1901      F1908   1.355       .  S
C1902      H1907   1.083       .  S
C1902      C1903   1.417       .  A
C1903      C1904   1.405       .  A
C1904      F1905   1.351       .  S
C1909      H1916   1.079       .  S
C1909      C1910   1.419       .  A
C1909      C1914   1.398       .  A
C1910      C1911   1.412       .  A
C1911      C1912   1.415       .  A
C1911      F1918   1.357       .  S
C1912      H1917   1.083       .  S
C1912      C1913   1.429       .  A
C1913      C1914   1.415       .  A
C1914      F1915   1.346       .  S
C1919      H1926   1.081       .  S
C1919      C1920   1.418       .  A
C1919      C1924   1.433       .  A
C1920      C1921   1.404       .  A
C1921      C1922   1.362       .  A
C1921      F1928   1.351       .  S
C1922      H1927   1.064       .  S
C1922      C1923   1.410       .  A
C1923      C1924   1.431       .  A
C1924      F1925   1.353       .  S
C1929      H1936   1.059       .  S
C1929      C1930   1.407       .  A
C1929      C1934   1.384       .  A
C1930      C1931   1.428       .  A
C1931      C1932   1.429       .  A
C1931      F1938   1.356       .  S
C1932      H1937   1.075       .  S
C1932      C1933   1.424       .  A
C1933      C1934   1.416       .  A
C1934      F1935   1.349       .  S
C1939      H1946   1.083       .  S
C1939      C1940   1.396       .  A
C1939      C1944   1.380       .  A
C1940      C1941   1.420       .  A
C1941      C1942   1.417       .  A
C1941      F1948   1.357       .  S
C1942      H1947   1.082       .  S
C1942      C1943   1.425       .  A
C1943      C1944   1.415       .  A
C1944      F1945   1.330       .  S
C1949      H1956   1.071       .  S
C1949      C1950   1.426       .  A
C1949      C1954   1.419       .  A
C1950      C1951   1.429       .  A
C1951      C1952   1.403       .  A
C1951      F1958   1.357       .  S
C1952      H1957   1.078       .  S
C1952      C1953   1.418       .  A
C1953      C1954   1.401       .  A
C1954      F1955   1.359       .  S
C1959      H1966   1.072       .  S
C1959      C1960   1.422       .  A
C1959      C1964   1.399       .  A
C1960      C1961   1.418       .  A
C1961      C1962   1.414       .  A
C1961      F1968   1.347       .  S
C1962      H1967   1.075       .  S
C1962      C1963   1.425       .  A
C1963      C1964   1.416       .  A
C1964      F1965   1.342       .  S
C1969      H1976   1.084       .  S
C1969      C1970   1.403       .  A
C1969      C1974   1.373       .  A
C1970      C1971   1.417       .  A
C1971      C1972   1.413       .  A
C1971      F1978   1.357       .  S
C1972      H1977   1.082       .  S
C1972      C1973   1.426       .  A
C1973      C1974   1.414       .  A
C1974      F1975   1.354       .  S
C1979      H1986   1.080       .  S
C1979      C1980   1.414       .  A
C1979      C1984   1.418       .  A
C1980      C1981   1.411       .  A
C1981      C1982   1.365       .  A
C1981      F1988   1.357       .  S
C1982      H1987   1.068       .  S
C1982      C1983   1.410       .  A
C1983      C1984   1.427       .  A
C1984      F1985   1.354       .  S
C1989      H1996   1.083       .  S
C1989      C1990   1.405       .  A
C1989      C1994   1.409       .  A
C1990      C1991   1.422       .  A
C1991      C1992   1.397       .  A
C1991      F1998   1.356       .  S
C1992      H1997   1.071       .  S
C1992      C1993   1.412       .  A
C1993      C1994   1.427       .  A
C1994      F1995   1.358       .  S
C1999      H2006   1.073       .  S
C1999      C2000   1.411       .  A
C1999      C2004   1.406       .  A
C2000      C2001   1.428       .  A
C2001      C2002   1.385       .  A
C2001      F2008   1.351       .  S
C2002      H2007   1.067       .  S
C2002      C2003   1.402       .  A
C2003      C2004   1.422       .  A
C2004      F2005   1.358       .  S
C2009      H2016   1.084       .  S
C2009      C2010   1.398       .  A
C2009      C2014   1.399       .  A
C2010      C2011   1.393       .  A
C2011      C2012   1.393       .  A
C2011      F2018   1.358       .  S
C2012      H2017   1.080       .  S
C2012      C2013   1.421       .  A
C2013      C2014   1.417       .  A
C2014      F2015   1.354       .  S
C2019      H2026   1.084       .  S
C2019      C2020   1.397       .  A
C2019      C2024   1.398       .  A
C2020      C2021   1.398       .  A
C2021      C2022   1.391       .  A
C2021      F2028   1.358       .  S
C2022      H2027   1.080       .  S
C2022      C2023   1.417       .  A
C2023      C2024   1.419       .  A
C2024      F2025   1.353       .  S
C2029      H2036   1.078       .  S
C2029      C2030   1.419       .  A
C2029      C2034   1.391       .  A
C2030      C2031   1.420       .  A
C2031      C2032   1.403       .  A
C2031      F2038   1.355       .  S
C2032      H2037   1.083       .  S
C2032      C2033   1.402       .  A
C2033      C2034   1.401       .  A
C2034      F2035   1.358       .  S
C2039      H2046   1.078       .  S
C2039      C2040   1.418       .  A
C2039      C2044   1.398       .  A
C2040      C2041   1.418       .  A
C2041      C2042   1.400       .  A
C2041      F2048   1.358       .  S
C2042      H2047   1.083       .  S
C2042      C2043   1.399       .  A
C2043      C2044   1.397       .  A
C2044      F2045   1.358       .  S
C2049      H2056   1.084       .  S
C2049      C2050   1.392       .  A
C2049      C2054   1.390       .  A
C2050      C2051   1.404       .  A
C2051      C2052   1.406       .  A
C2051      F2058   1.357       .  S
C2052      H2057   1.083       .  S
C2052      C2053   1.414       .  A
C2053      C2054   1.426       .  A
C2054      F2055   1.356       .  S
C2059      H2066   1.075       .  S
C2059      C2060   1.416       .  A
C2059      C2064   1.389       .  A
C2060      C2061   1.423       .  A
C2061      C2062   1.410       .  A
C2061      F2068   1.355       .  S
C2062      H2067   1.083       .  S
C2062      C2063   1.403       .  A
C2063      C2064   1.401       .  A
C2064      F2065   1.358       .  S
C2069      H2076   1.084       .  S
C2069      C2070   1.392       .  A
C2069      C2074   1.394       .  A
C2070      C2071   1.393       .  A
C2071      C2072   1.396       .  A
C2071      F2078   1.358       .  S
C2072      H2077   1.075       .  S
C2072      C2073   1.422       .  A
C2073      C2074   1.422       .  A
C2074      F2075   1.349       .  S
C2079      H2086   1.083       .  S
C2079      C2080   1.403       .  A
C2079      C2084   1.405       .  A
C2080      C2081   1.401       .  A
C2081      C2082   1.392       .  A
C2081      F2088   1.356       .  S
C2082      H2087   1.068       .  S
C2082      C2083   1.410       .  A
C2083      C2084   1.425       .  A
C2084      F2085   1.355       .  S
