geometry optimzed in LAMMPS
_audit_creation_date              2020-12-01 
_audit_creation_method            'lammps2cif' 
_symmetry_space_group_name_H-M    'P1' 
_symmetry_Int_Tables_number       1 
_symmetry_cell_setting            triclinic 
loop_ 
_symmetry_equiv_pos_as_xyz 
  x,y,z 
_cell_length_a                    25.66096419 
_cell_length_b                    26.598137511294834 
_cell_length_c                    26.53100703935374 
_cell_angle_alpha                 90.04411536237723 
_cell_angle_beta                  89.352041431548 
_cell_angle_gamma                 79.47655330800112 
loop_ 
_atom_site_label 
_atom_site_type_symbol 
_atom_site_fract_x 
_atom_site_fract_y 
_atom_site_fract_z 
_atom_site_charge 
C1          C  0.91622946  0.89620548  0.65953487     0.86100
C2          C  0.93939955  0.92706657  0.61814559    -0.54100
C3          C  0.91790105  0.92405887  0.57121237     0.09000
C4          C  0.87490784  0.88855375  0.57056199     0.20000
C5          C  0.85591640  0.91588535  0.65689087    -0.54900
C6          C  0.83369836  0.91155434  0.61090978     0.09100
C7          C  0.92500937  0.84177574  0.63787691    -0.54400
C8          C  0.90100636  0.83659071  0.59355607     0.09700
H9          H  0.97030924  0.94868866  0.62399368     0.14200
H10         H  0.85692446  0.88351891  0.53364424    -0.00100
H11         H  0.83240645  0.93023266  0.68989731     0.14500
H12         H  0.94389249  0.80850721  0.65903197     0.14300
C13         C  0.41816703  0.49865412  0.64956850     0.86100
C14         C  0.39982574  0.46362036  0.60941232    -0.54100
C15         C  0.42309511  0.46572781  0.56261073     0.09000
C16         C  0.46197869  0.50516598  0.56080397     0.20000
C17         C  0.47871176  0.48451489  0.64868529    -0.54900
C18         C  0.50184015  0.48875889  0.60314420     0.09100
C19         C  0.40495319  0.55170477  0.62530666    -0.54400
C20         C  0.42922539  0.55632940  0.58026194     0.09700
H21         H  0.36879096  0.44192616  0.61593925     0.14200
H22         H  0.48179372  0.50923493  0.52414677    -0.00100
H23         H  0.50182272  0.47363870  0.68234144     0.14500
H24         H  0.38169211  0.58463533  0.64439431     0.14300
C25         C  0.89065601  0.55110737  0.00465796     0.86100
C26         C  0.83357336  0.54761501  0.02064979    -0.54100
C27         C  0.82045811  0.50064486  0.01350518     0.09000
C28         C  0.86614018  0.46115136  0.99077179     0.20000
C29         C  0.92630212  0.50856888  0.03325843    -0.54900
C30         C  0.91413837  0.46114239  0.02709626     0.09100
C31         C  0.89327692  0.53354183  0.94944063    -0.54400
C32         C  0.87989741  0.48725777  0.94169699     0.09700
H33         H  0.80483671  0.58043860  0.03345961     0.14200
H34         H  0.85417746  0.42398891  0.98330782    -0.00100
H35         H  0.95798405  0.51637649  0.05697000     0.14500
H36         H  0.89893109  0.55726396  0.91744846     0.14300
C37         C  0.46685628  0.83585251  0.00454486     0.86100
C38         C  0.52228283  0.84673610  0.01454655    -0.54100
C39         C  0.52848929  0.89479386  0.00164702     0.09000
C40         C  0.47784037  0.92902166  0.98211254     0.20000
C41         C  0.43082676  0.87731997  0.03600823    -0.54900
C42         C  0.43600990  0.92640861  0.02489321     0.09100
C43         C  0.45553639  0.85046994  0.94980264    -0.54400
C44         C  0.46131066  0.89861504  0.93695771     0.09700
H45         H  0.55418803  0.81929860  0.03073922     0.14200
H46         H  0.48370343  0.96785959  0.97177976    -0.00100
H47         H  0.40624262  0.86823720  0.06677866     0.14500
H48         H  0.44595124  0.82319542  0.92243320     0.14300
C49         C  0.93699485  0.97585390  0.43690123     0.86100
C50         C  0.99710217  0.97037315  0.44290434    -0.54100
C51         C  0.01280773  0.98224263  0.48952596     0.09000
C52         C  0.96616598  0.99857366  0.52709337     0.20000
C53         C  0.91913735  0.94276553  0.47824448    -0.54900
C54         C  0.93331406  0.95371571  0.52602613     0.09100
C55         C  0.91685083  0.03147640  0.45325118    -0.54400
C56         C  0.93237508  0.04491470  0.49962595     0.09700
H57         H  0.02524082  0.96129189  0.41194343     0.14200
H58         H  0.97877605  0.00840410  0.56505724    -0.00100
H59         H  0.89755331  0.91254508  0.46943642     0.14500
H60         H  0.89877913  0.06035324  0.42677980     0.14300
C61         C  0.95989312  0.32656983  0.08377857     0.86100
C62         C  0.93040133  0.36820463  0.04886167    -0.54100
C63         C  0.94260877  0.41551121  0.05557330     0.09000
C64         C  0.98581559  0.41599217  0.09681706     0.20000
C65         C  0.01856091  0.32732603  0.07331744    -0.54900
C66         C  0.03269299  0.37371664  0.08039819     0.09100
C67         C  0.94799521  0.34861067  0.13660553    -0.54400
C68         C  0.96348818  0.39383062  0.14451264     0.09700
H69         H  0.90179670  0.36184299  0.02154734     0.14200
H70         H  0.99775132  0.45327681  0.10398604    -0.00100
H71         H  0.04637855  0.29378091  0.06066719     0.14500
H72         H  0.93132282  0.32852421  0.16669545     0.14300
C73         C  0.37840232  0.06178073  0.07617231     0.86100
C74         C  0.41541588  0.02019002  0.04637037    -0.54100
C75         C  0.40632602  0.97157653  0.05389265     0.09000
C76         C  0.36044138  0.96947847  0.09279823     0.20000
C77         C  0.32227592  0.05395759  0.06201705    -0.54900
C78         C  0.31265604  0.00617116  0.07127915     0.09100
C79         C  0.38339860  0.04534214  0.13125852    -0.54400
C80         C  0.37401661  0.99767631  0.14054424     0.09700
H81         H  0.44555320  0.02952254  0.02099230     0.14200
H82         H  0.35129677  0.93124681  0.10119187    -0.00100
H83         H  0.29047197  0.08304524  0.04877328     0.14500
H84         H  0.39142830  0.07058982  0.16131508     0.14300
C85         C  0.40259170  0.41547821  0.42826394     0.86100
C86         C  0.34197497  0.42681571  0.43755040    -0.54100
C87         C  0.32603022  0.41618008  0.48477257     0.09000
C88         C  0.37239203  0.39394267  0.51913802     0.20000
C89         C  0.42545604  0.44468381  0.46973192    -0.54900
C90         C  0.40961711  0.43502923  0.51778078     0.09100
C91         C  0.41758454  0.35900455  0.44222152    -0.54400
C92         C  0.40095722  0.34672861  0.48867744     0.09700
H93         H  0.31280305  0.43726385  0.40839144     0.14200
H94         H  0.35923468  0.38378336  0.55711204    -0.00100
H95         H  0.45006115  0.47249409  0.46064934     0.14500
H96         H  0.43402330  0.32969518  0.41495397     0.14300
Zr97       Zr  0.87355029  0.88433536  0.98796885     2.17500
O98         O  0.81094220  0.86049740  0.92792996    -0.51700
O99         O  0.89142843  0.79219593  0.99903998    -0.74900
O100        O  0.91029834  0.87799795  0.90193965    -0.81700
O101        O  0.75495740  0.93427218  0.07981562    -0.83500
O102        O  0.98837629  0.90658505  0.89814604    -0.79100
O103        O  0.77755375  0.90072914  0.00237092    -0.90700
O104        O  0.94693275  0.77040199  0.06485914    -0.76700
O105        O  0.96552667  0.86158635  0.00609748    -0.86200
O106        O  0.87850289  0.86760608  0.07635918    -0.85900
O107        O  0.91047184  0.95729661  0.96274457    -0.72600
O108        O  0.83115891  0.96094459  0.02915066    -0.84800
Zr109      Zr  0.96752475  0.99515915  0.11216089     2.26400
Zr110      Zr  0.00274033  0.93474514  0.98313237     2.06300
Zr111      Zr  0.83746363  0.94533056  0.11729161     2.10000
Zr112      Zr  0.97079773  0.84712140  0.09468616     1.78800
O113        O  0.77225951  0.01700768  0.14872674    -0.93600
O114        O  0.05482330  0.79498377  0.06826815    -0.41400
O115        O  0.92942525  0.92331243  0.13555853    -0.78000
O116        O  0.01128022  0.91763294  0.07187502    -0.96700
O117        O  0.96112694  0.01186307  0.02406696    -0.90000
O118        O  0.87507021  0.01813004  0.09477022    -0.92800
C119        C  0.91801191  0.75983696  0.02916723     1.00900
C120        C  0.74302229  0.91801864  0.03677242     1.13800
C121        C  0.95068551  0.88846215  0.87756089     1.04600
O122        O  0.07720083  0.86733517  0.96124599    -0.95000
O123        O  0.08123481  0.96259227  0.01404762    -0.90700
O124        O  0.06064524  0.99691131  0.09171428    -0.83900
C125        C  0.09332989  0.98332431  0.05493148     1.11300
O126        O  0.79691516  0.03859195  0.94585407    -0.97000
Zr127      Zr  0.86896866  0.03231183  0.00601422     1.88900
O128        O  0.94195657  0.08711802  0.10452175    -0.73600
O129        O  0.02977908  0.99777251  0.92674607    -0.52900
O130        O  0.88937540  0.07235273  0.92742799    -0.97600
O131        O  0.79153307  0.09221913  0.03668966    -0.54800
O132        O  0.90586515  0.10452431  0.02785033    -0.74100
C133        C  0.92516060  0.11781814  0.06857514     0.98200
O134        O  0.01280243  0.02418218  0.18404429    -0.63000
O135        O  0.80253646  0.88374204  0.16996729    -0.57800
O136        O  0.94207120  0.98088860  0.19951468    -0.94400
O137        O  0.85940413  0.96131050  0.20318819    -0.92900
O138        O  0.94176168  0.80433648  0.16815305    -0.93200
O139        O  0.03273950  0.83672825  0.16441682    -0.92000
C140        C  0.90138955  0.97094159  0.22372272     1.16700
H141        H  0.86024630  0.84020466  0.08553583     0.33000
H142        H  0.04781100  0.90795634  0.08170339     0.43900
H143        H  0.85864417  0.04778888  0.11398153     0.37400
H144        H  0.90492298  0.96588081  0.92765082     0.33900
H145        H  0.05488058  0.76118259  0.08390008     0.25600
H146        H  0.06130003  0.97896772  0.90854963     0.31600
H147        H  0.92715150  0.07529005  0.93006294     0.37500
H148        H  0.91199310  0.82932765  0.18262873     0.32000
H149        H  0.77120782  0.90402449  0.18724759     0.30800
H150        H  0.75614792  0.00347954  0.17870074     0.32500
H151        H  0.80510163  0.11420895  0.06161960     0.31500
H152        H  0.02141595  0.86750884  0.18565516     0.35500
H153        H  0.04857245  0.00260877  0.18498870     0.28200
H154        H  0.82653803  0.82544624  0.91681336     0.32400
H155        H  0.78594303  0.07552141  0.93871452     0.35300
H156        H  0.78755572  0.86144335  0.14636030     0.27900
H157        H  0.01870362  0.05877348  0.17499432     0.40800
H158        H  0.09659216  0.85949415  0.99316965     0.30800
H159        H  0.05087421  0.78902517  0.03178569     0.38400
H160        H  0.77116165  0.07107797  0.05695487     0.30300
H161        H  0.00183530  0.00428162  0.90091441     0.30400
H162        H  0.81211208  0.88233769  0.89787452     0.30600
Zr163      Zr  0.98283249  0.37506881  0.48267613     2.17500
O164        O  0.05458041  0.31133047  0.44760317    -0.51700
O165        O  0.97505501  0.38937617  0.39020838    -0.74900
O166        O  0.96170798  0.28650593  0.48573295    -0.81700
O167        O  0.07489449  0.46711723  0.52387207    -0.83500
O168        O  0.87698672  0.29200969  0.51428357    -0.79100
O169        O  0.07598063  0.38728058  0.49262233    -0.90700
O170        O  0.91120490  0.45823313  0.37451261    -0.76700
O171        O  0.89042747  0.39890930  0.46541922    -0.86200
O172        O  0.96455973  0.46559365  0.46848593    -0.85900
O173        O  0.93801167  0.35450838  0.55855584    -0.72600
O174        O  0.00576140  0.41655999  0.55793070    -0.84800
Zr175      Zr  0.84764268  0.50839524  0.60286602     2.26400
Zr176      Zr  0.84549121  0.37908411  0.54031868     2.06300
Zr177      Zr  0.98530219  0.50655801  0.54411818     2.10000
Zr178      Zr  0.87213275  0.48923016  0.45308852     1.78800
O179        O  0.03670621  0.53397568  0.61214098    -0.93600
O180        O  0.79828493  0.46644708  0.40667451    -0.41400
O181        O  0.89310288  0.52901321  0.52841627    -0.78000
O182        O  0.82456067  0.46938951  0.52570514    -0.96700
O183        O  0.86764184  0.41833341  0.61646942    -0.90000
O184        O  0.94060676  0.48704608  0.61943728    -0.92800
C185        C  0.94749715  0.42159321  0.35989812     1.00900
C186        C  0.09926513  0.42418677  0.50652158     1.13800
C187        C  0.92096474  0.26623946  0.49796248     1.04600
O188        O  0.78964331  0.36385408  0.47039737    -0.95000
O189        O  0.75609914  0.41141072  0.56884361    -0.90700
O190        O  0.75588246  0.49055264  0.60105939    -0.83900
C191        C  0.73205038  0.45385472  0.58753650     1.11300
O192        O  0.03499056  0.32551402  0.63637603    -0.97000
Zr193      Zr  0.96033098  0.39677939  0.63203648     1.88900
O194        O  0.85470108  0.49350524  0.69553844    -0.73600
O195        O  0.81370119  0.32090754  0.59925418    -0.52900
O196        O  0.93535156  0.32404154  0.67586004    -0.97600
O197        O  0.03375555  0.42032272  0.67857324    -0.54800
O198        O  0.92003115  0.42594598  0.71096291    -0.74100
C199        C  0.88250722  0.46135184  0.72584386     0.98200
O200        O  0.78407017  0.58156049  0.63418980    -0.63000
O201        O  0.02254107  0.56023436  0.48426271    -0.57800
O202        O  0.86475365  0.59736838  0.59009918    -0.94400
O203        O  0.94545955  0.59566085  0.55331183    -0.92900
O204        O  0.89849142  0.56216811  0.41105200    -0.93200
O205        O  0.80167574  0.56346250  0.44354483    -0.92000
C206        C  0.90127378  0.61990795  0.57094749     1.17100
H207        H  0.98536334  0.47465032  0.44053427     0.33000
H208        H  0.78803559  0.48055478  0.51636995     0.43900
H209        H  0.94983320  0.50581695  0.64815951     0.37400
H210        H  0.94730128  0.31913160  0.56825731     0.33900
H211        H  0.79337444  0.49006148  0.37757153     0.25600
H212        H  0.79302340  0.30078546  0.57850036     0.31600
H213        H  0.95292003  0.32290944  0.70899135     0.37500
H214        H  0.90845480  0.58338976  0.43874867     0.32000
H215        H  0.05472900  0.56786880  0.50058297     0.30800
H216        H  0.04918265  0.56448232  0.59872307     0.32500
H217        H  0.01818011  0.45115002  0.69825507     0.31500
H218        H  0.79794018  0.57980663  0.47726473     0.35500
H219        H  0.76089097  0.59285721  0.60519307     0.28200
H220        H  0.03819618  0.29346870  0.42098415     0.32400
H221        H  0.04326464  0.32069486  0.67260533     0.35300
H222        H  0.03608707  0.53793024  0.45535459     0.27900
H223        H  0.76100232  0.56729239  0.65833046     0.40800
H224        H  0.81407343  0.34494578  0.44484501     0.30800
H225        H  0.81254536  0.43263226  0.39153245     0.38400
H226        H  0.05613555  0.43288169  0.65253050     0.30300
H227        H  0.84565219  0.29621072  0.60912381     0.30400
H228        H  0.06391898  0.28559319  0.47452049     0.30600
Zr229      Zr  0.47184230  0.50079289  0.97470657     2.17500
O230        O  0.53333687  0.51856538  0.90903144    -0.51700
O231        O  0.45616638  0.59339741  0.98470587    -0.74900
O232        O  0.43404364  0.50679549  0.88977397    -0.81700
O233        O  0.58511589  0.46242354  0.06958101    -0.83500
O234        O  0.35632861  0.47722663  0.88872578    -0.79100
O235        O  0.56698172  0.49342349  0.99069751    -0.90700
O236        O  0.39633365  0.61807893  0.04744852    -0.76700
O237        O  0.37949544  0.52513798  0.99271162    -0.86200
O238        O  0.46425378  0.52017224  0.06252082    -0.85900
O239        O  0.43407079  0.42729379  0.95317834    -0.72600
O240        O  0.51292405  0.42448708  0.01722027    -0.84800
Zr241      Zr  0.37239173  0.39512873  0.10312020     2.26400
Zr242      Zr  0.34123178  0.45163590  0.97368516     2.06300
Zr243      Zr  0.50352860  0.44353472  0.10523741     2.10000
Zr244      Zr  0.37155912  0.54269356  0.08058418     1.78800
O245        O  0.57475604  0.37457002  0.12970103    -0.93600
O246        O  0.28727732  0.58835365  0.04875945    -0.41400
O247        O  0.41096903  0.46743635  0.12410705    -0.78000
O248        O  0.33048252  0.47187356  0.06168330    -0.96700
O249        O  0.38088707  0.37516285  0.01588567    -0.90000
O250        O  0.46511714  0.37039007  0.08599540    -0.92800
C251        C  0.42824196  0.62745078  0.01311101     1.00900
C252        C  0.59894877  0.47988739  0.02739790     1.13800
C253        C  0.39337942  0.49576514  0.86716294     1.04600
O254        O  0.26863438  0.51955035  0.94990442    -0.95000
O255        O  0.26046033  0.42661093  0.00451731    -0.90700
O256        O  0.27940388  0.39532381  0.08313019    -0.83900
C257        C  0.24751602  0.40750999  0.04618233     1.11300
O258        O  0.53005749  0.33817436  0.92278461    -0.97000
Zr259      Zr  0.47334835  0.35254430  0.99779041     1.88900
O260        O  0.38924205  0.30301695  0.09342511    -0.73600
O261        O  0.31553230  0.38780282  0.91798382    -0.52900
O262        O  0.43532520  0.30503579  0.93338466    -0.97600
O263        O  0.56143195  0.30518639  0.01691896    -0.54800
O264        O  0.45564651  0.27634647  0.03672251    -0.74100
C265        C  0.41994001  0.26851650  0.06800217     0.98200
O266        O  0.32307797  0.36949532  0.17492268    -0.63000
O267        O  0.53249823  0.50551649  0.16126043    -0.57800
O268        O  0.39883701  0.40788598  0.18956604    -0.94400
O269        O  0.48219237  0.42561263  0.19190159    -0.92900
O270        O  0.39759166  0.58819528  0.15306470    -0.93200
O271        O  0.30633511  0.56472233  0.14807506    -0.92000
C272        C  0.43938956  0.41757490  0.21323014     1.17100
H273        H  0.48271401  0.54752945  0.07100239     0.33000
H274        H  0.29370718  0.48241734  0.07126170     0.43900
H275        H  0.48076544  0.34143425  0.10623936     0.37400
H276        H  0.43969149  0.41805965  0.91809617     0.33900
H277        H  0.27868241  0.61978597  0.06947645     0.25600
H278        H  0.28903068  0.40747450  0.89522709     0.31600
H279        H  0.40337879  0.29556546  0.94926160     0.37500
H280        H  0.43427510  0.57092618  0.16023624     0.32000
H281        H  0.56469278  0.48646999  0.17749066     0.30800
H282        H  0.59211487  0.38868760  0.15822103     0.32500
H283        H  0.56161799  0.27009691  0.00432884     0.31500
H284        H  0.28071654  0.54148834  0.14332036     0.35500
H285        H  0.29243938  0.39768750  0.18011306     0.28200
H286        H  0.51584894  0.55051959  0.89255234     0.32400
H287        H  0.53587926  0.30089648  0.91622224     0.35300
H288        H  0.54571095  0.53039353  0.13899076     0.27900
H289        H  0.30751707  0.34026615  0.16294768     0.40800
H290        H  0.28576253  0.54781388  0.93774422     0.30800
H291        H  0.29574845  0.60071158  0.01500706     0.38400
H292        H  0.56171949  0.30169843  0.05405374     0.30300
H293        H  0.34703839  0.37623140  0.89622174     0.30400
H294        H  0.53443540  0.49144469  0.88324005     0.30600
Zr295      Zr  0.48844708  0.88265538  0.59774013     2.17500
O296        O  0.55023881  0.81008469  0.63117426    -0.51700
O297        O  0.47649209  0.89372356  0.69010228    -0.74900
O298        O  0.57979259  0.90057144  0.59984280    -0.81700
O299        O  0.38968192  0.79930023  0.55501247    -0.83500
O300        O  0.58253966  0.97741833  0.56334309    -0.79100
O301        O  0.47310625  0.79330059  0.58446065    -0.90700
O302        O  0.41685324  0.96604457  0.70758068    -0.76700
O303        O  0.47068100  0.97291921  0.61201291    -0.86200
O304        O  0.39565559  0.90605545  0.61580630    -0.85900
O305        O  0.51333614  0.92143021  0.52067654    -0.72600
O306        O  0.44345547  0.86295052  0.52357503    -0.84800
Zr307      Zr  0.35657063  0.01710271  0.47988522     2.26400
Zr308      Zr  0.49390400  0.01204100  0.53538381     2.06300
Zr309      Zr  0.35126140  0.88735591  0.54105138     2.10000
Zr310      Zr  0.37805236  0.99608130  0.62923513     1.78800
O311        O  0.31919497  0.83715038  0.47526647    -0.93600
O312        O  0.40080139  0.07159048  0.66934941    -0.41400
O313        O  0.33235086  0.97732453  0.55589692    -0.78000
O314        O  0.40129139  0.03656950  0.55518145    -0.96700
O315        O  0.44912167  0.99302739  0.46104833    -0.90000
O316        O  0.37335562  0.92693658  0.46486899    -0.92800
C317        C  0.45019569  0.92686103  0.72080059     1.00900
C318        C  0.43382520  0.77287287  0.56924067     1.13800
C319        C  0.60458086  0.93633757  0.58554997     1.04600
O320        O  0.53616005  0.06602891  0.58957427    -0.95000
O321        O  0.45935584  0.10162922  0.51722819    -0.90700
O322        O  0.37785880  0.10477515  0.48307831    -0.83900
C323        C  0.41573092  0.12649725  0.49946525     1.11300
O324        O  0.54062427  0.83212074  0.43714733    -0.97000
Zr325      Zr  0.46603649  0.90275140  0.44802263     1.88900
O326        O  0.36142598  0.00119761  0.38736277    -0.73600
O327        O  0.54696230  0.02598904  0.46174397    -0.52900
O328        O  0.53754123  0.92976731  0.39993868    -0.97600
O329        O  0.44320655  0.82737934  0.40761962    -0.54800
O330        O  0.42510555  0.93232852  0.37000822    -0.74100
C331        C  0.38827991  0.96864639  0.35624094     0.98200
O332        O  0.29278323  0.08837621  0.44667385    -0.63000
O333        O  0.29582025  0.85634232  0.60480533    -0.57800
O334        O  0.26342432  0.00619027  0.49404043    -0.94400
O335        O  0.26100061  0.92775539  0.52685684    -0.92900
O336        O  0.30323365  0.97162874  0.67413858    -0.93200
O337        O  0.30542999  0.06830694  0.64065412    -0.92000
C338        C  0.23827135  0.97147106  0.51057393     1.17100
H339        H  0.38540442  0.88779390  0.64461669     0.33000
H340        H  0.39109535  0.07161602  0.56584813     0.43900
H341        H  0.35216269  0.91797869  0.43762711     0.37400
H342        H  0.55012795  0.90963949  0.51192036     0.33900
H343        H  0.39269390  0.06818729  0.70562649     0.25600
H344        H  0.52567172  0.05530314  0.44394138     0.31600
H345        H  0.52033843  0.95982596  0.38037858     0.37500
H346        H  0.30948000  0.97805366  0.71013478     0.32000
H347        H  0.27978746  0.83014525  0.58725050     0.30800
H348        H  0.29740322  0.81561207  0.49324998     0.32500
H349        H  0.40602983  0.83798316  0.39681853     0.31500
H350        H  0.28025928  0.06445722  0.61351668     0.35500
H351        H  0.26677670  0.07269693  0.42784100     0.28200
H352        H  0.56324664  0.82241967  0.66303475     0.32400
H353        H  0.54709037  0.82891295  0.40031542     0.35300
H354        H  0.32056517  0.83665061  0.62904589     0.27900
H355        H  0.27276250  0.10433554  0.47650175     0.40800
H356        H  0.53054894  0.05407827  0.62421688     0.30800
H357        H  0.43995881  0.06637333  0.66736268     0.38400
H358        H  0.44121864  0.80303937  0.43549775     0.30300
H359        H  0.57724954  0.03967189  0.47554683     0.30400
H360        H  0.58130693  0.80505691  0.60803689     0.30600
C361        C  0.15794550  0.41950970  0.50210223    -0.00600
C362        C  0.17752028  0.46398750  0.48928724    -0.12400
C363        C  0.23183092  0.46410702  0.48592499     0.01700
C364        C  0.26862786  0.41924693  0.49650577    -0.00600
C365        C  0.24955658  0.37500600  0.51093757    -0.12400
C366        C  0.19471574  0.37453612  0.51311182     0.01600
H367        H  0.15007095  0.49898352  0.48082170     0.14500
H368        H  0.27751939  0.34019442  0.51860875     0.14500
C369        C  0.17759222  0.32773513  0.52723312     0.36200
C370        C  0.24880203  0.51069772  0.47038328     0.36100
N371        N  0.16444368  0.28987333  0.53847246    -0.44100
N372        N  0.26249414  0.54771519  0.45721469    -0.44100
C373        C  0.41977380  0.42643087  0.37430317    -0.00600
C374        C  0.38351346  0.45692437  0.34255283    -0.12400
C375        C  0.38917915  0.45387556  0.29039965     0.01700
C376        C  0.43447289  0.42345408  0.26847911    -0.00600
C377        C  0.47559995  0.40050860  0.29995036    -0.12400
C378        C  0.46885416  0.40209753  0.35264027     0.01600
H379        H  0.34931381  0.48235205  0.35793793     0.14500
H380        H  0.51208551  0.37970948  0.28341017     0.14500
C381        C  0.51244897  0.37778729  0.38323796     0.36200
C382        C  0.34703184  0.48209929  0.26062755     0.36100
N383        N  0.54746385  0.35822252  0.40762331    -0.44100
N384        N  0.31223744  0.50456262  0.23788259    -0.44100
C385        C  0.39578576  0.29241639  0.49803877    -0.00600
C386        C  0.42621614  0.26454049  0.53540105    -0.12400
C387        C  0.43189076  0.21097535  0.53759846     0.01700
C388        C  0.40751360  0.18382913  0.50103759    -0.00600
C389        C  0.37363568  0.21246474  0.46614870    -0.12400
C390        C  0.36745734  0.26599897  0.46448833     0.01600
H391        H  0.44722736  0.28448048  0.56185429     0.14500
H392        H  0.35297192  0.19294529  0.43904932     0.14500
C393        C  0.33255329  0.29292564  0.42707480     0.36200
C394        C  0.46178057  0.18567693  0.57900277     0.36100
N395        N  0.30450961  0.31447426  0.39715640    -0.44100
N396        N  0.48537961  0.16674078  0.61304947    -0.44100
C397        C  0.39114284  0.11541280  0.07017556    -0.00600
C398        C  0.35294523  0.15612695  0.05194820    -0.12400
C399        C  0.36172550  0.20612648  0.05238712     0.01700
C400        C  0.40962035  0.21665686  0.07079276    -0.00600
C401        C  0.44925217  0.17684463  0.08646472    -0.12400
C402        C  0.44060254  0.12647172  0.08631970     0.01600
H403        H  0.31591320  0.15046310  0.03657232     0.14500
H404        H  0.48689085  0.18520563  0.09894494     0.14500
C405        C  0.48317547  0.08723520  0.10360904     0.36200
C406        C  0.32201859  0.24580199  0.03095393     0.36100
N407        N  0.51754936  0.05618291  0.11757305    -0.44100
N408        N  0.29059839  0.27743878  0.01328282    -0.44100
C409        C  0.37005372  0.98099330  0.19365332    -0.00600
C410        C  0.33272114  0.01094466  0.22563998    -0.12400
C411        C  0.33616479  0.00689728  0.27831918     0.01700
C412        C  0.37810724  0.97211177  0.30040112    -0.00600
C413        C  0.41313951  0.93955063  0.26755345    -0.12400
C414        C  0.40940165  0.94382018  0.21491440     0.01600
H415        H  0.30217033  0.03968093  0.20920939     0.14500
H416        H  0.44523061  0.91169629  0.28274152     0.14500
C417        C  0.44856821  0.91220142  0.18343552     0.36200
C418        C  0.29649972  0.04002323  0.30780211     0.36100
N419        N  0.47981950  0.88702979  0.15795091    -0.44100
N420        N  0.26384038  0.06712342  0.33005428    -0.44100
C421        C  0.25773475  0.99616042  0.06976336    -0.00600
C422        C  0.21822786  0.03009742  0.09586506    -0.12400
C423        C  0.16466534  0.02729670  0.09136297     0.01700
C424        C  0.14952342  0.98899651  0.06076554    -0.00600
C425        C  0.18944517  0.95415589  0.03556665    -0.12400
C426        C  0.24315212  0.95749024  0.03975906     0.01600
H427        H  0.22932251  0.06008478  0.11894387     0.14500
H428        H  0.17872221  0.92420508  0.01224735     0.14500
C429        C  0.28194180  0.92247966  0.01098842     0.36200
C430        C  0.12660652  0.06634123  0.11629449     0.36100
N431        N  0.31246914  0.89428186  0.98746797    -0.44100
N432        N  0.09711512  0.09846125  0.13631335    -0.44100
C433        C  0.95611609  0.41767087  0.30393492    -0.00600
C434        C  0.91514912  0.44263257  0.27260423    -0.12400
C435        C  0.91935084  0.43993972  0.22000456     0.01700
C436        C  0.96517257  0.41207401  0.19709235    -0.00600
C437        C  0.00716966  0.38880312  0.22768887    -0.12400
C438        C  0.00325810  0.39163403  0.28062169     0.01600
H439        H  0.87854052  0.46319270  0.28909559     0.14500
H440        H  0.04211894  0.36615441  0.21011505     0.14500
C441        C  0.04824285  0.36781032  0.30968446     0.36200
C442        C  0.87469919  0.46326179  0.19017093     0.36100
N443        N  0.08452782  0.34900823  0.33289059    -0.44100
N444        N  0.83888352  0.48171210  0.16620446    -0.44100
C445        C  0.08802084  0.38194144  0.07214871    -0.00600
C446        C  0.09641166  0.42417884  0.04363653    -0.12400
C447        C  0.14781547  0.43307060  0.03379819     0.01700
C448        C  0.19222220  0.39928209  0.05297880    -0.00600
C449        C  0.18371033  0.35717569  0.08146960    -0.12400
C450        C  0.13260524  0.34811714  0.09107828     0.01600
H451        H  0.06263787  0.45025591  0.02873451     0.14500
H452        H  0.21737915  0.33101890  0.09650987     0.14500
C453        C  0.12821252  0.30439754  0.12180260     0.36200
C454        C  0.15326846  0.47858572  0.00622740     0.36100
N455        N  0.12737088  0.26859105  0.14626108    -0.44100
N456        N  0.15689287  0.51543788  0.98436984    -0.44100
C457        C  0.94823109  0.27272848  0.08063575    -0.00600
C458        C  0.91261821  0.25970395  0.04512287    -0.12400
C459        C  0.90247583  0.21026282  0.04193351     0.01700
C460        C  0.92979968  0.17171653  0.07359114    -0.00600
C461        C  0.96409143  0.18458228  0.10989969    -0.12400
C462        C  0.97302361  0.23422959  0.11423881     0.01600
H463        H  0.89172591  0.28717695  0.01934168     0.14500
H464        H  0.98445395  0.15564508  0.13518564     0.14500
C465        C  0.00589924  0.24417451  0.15560632     0.36200
C466        C  0.86265817  0.20124253  0.00652927     0.36100
N467        N  0.03050488  0.25129159  0.19030479    -0.44100
N468        N  0.83060430  0.19439257  0.97828317    -0.44100
C469        C  0.92819684  0.10155180  0.51024868    -0.00600
C470        C  0.88196870  0.13430579  0.49400586    -0.12400
C471        C  0.87985086  0.18692652  0.48749200     0.01700
C472        C  0.92453304  0.20934317  0.49813374    -0.00600
C473        C  0.96956082  0.17762471  0.51782736    -0.12400
C474        C  0.97138412  0.12464957  0.52499917     0.01600
H475        H  0.84761787  0.11811553  0.48392769     0.14500
H476        H  0.00281451  0.19465416  0.52952737     0.14500
C477        C  0.01697808  0.09657464  0.55014085     0.36200
C478        C  0.83137439  0.21657181  0.46817098     0.36100
N479        N  0.05352638  0.07617839  0.57205344    -0.44100
N480        N  0.79232303  0.23999127  0.45283302    -0.44100
C481        C  0.06898632  0.98602978  0.49873898    -0.00600
C482        C  0.09494830  0.96046206  0.53987615    -0.12400
C483        C  0.14938069  0.95848738  0.54650918     0.01700
C484        C  0.17927791  0.98125490  0.51055315    -0.00600
C485        C  0.15227233  0.01036190  0.47167447    -0.12400
C486        C  0.09757512  0.01340421  0.46583490     0.01600
H487        H  0.07281669  0.94123068  0.56640973     0.14500
H488        H  0.17412329  0.02945743  0.44479357     0.14500
C489        C  0.07153239  0.04581941  0.42645951     0.36200
C490        C  0.17281853  0.93422367  0.59156109     0.36100
N491        N  0.05053282  0.07194507  0.39510604    -0.44100
N492        N  0.19056717  0.91531748  0.62832068    -0.44100
C493        C  0.91985239  0.96407352  0.38361633    -0.00600
C494        C  0.87430772  0.99439636  0.36266622    -0.12400
C495        C  0.86684603  0.99661488  0.31060084     0.01700
C496        C  0.90456332  0.96708140  0.27868753    -0.00600
C497        C  0.94501748  0.93092134  0.29957520    -0.12400
C498        C  0.95151877  0.92763884  0.35177437     0.01600
H499        H  0.84538711  0.01821390  0.38661668     0.14500
H500        H  0.97135898  0.90497171  0.27499256     0.14500
C501        C  0.98989000  0.88589151  0.37134893     0.36200
C502        C  0.82195519  0.03148729  0.29081808     0.36100
N503        N  0.02054711  0.85222706  0.38680272    -0.44100
N504        N  0.78592838  0.05943602  0.27509917    -0.44100
C505        C  0.45976565  0.78066383  0.01180159    -0.00600
C506        C  0.40924994  0.77153007  0.02596402    -0.12400
C507        C  0.39713980  0.72257602  0.02475426     0.01700
C508        C  0.43594546  0.68078160  0.00877465    -0.00600
C509        C  0.48530774  0.68963998  0.99232252    -0.12400
C510        C  0.49733614  0.73860192  0.99273720     0.01600
H511        H  0.37752886  0.80281043  0.03561915     0.14500
H512        H  0.51517718  0.65788262  0.97944126     0.14500
C513        C  0.54844130  0.74311524  0.97192466     0.36200
C514        C  0.34354902  0.71734911  0.03769217     0.36100
N515        N  0.59014545  0.74440442  0.95555507    -0.44100
N516        N  0.30037172  0.71405694  0.04800018    -0.44100
C517        C  0.58088738  0.90943638  0.00463144    -0.00600
C518        C  0.59130438  0.94053425  0.04434372    -0.12400
C519        C  0.64346243  0.94568216  0.05503154     0.01700
C520        C  0.68621623  0.91888202  0.02537309    -0.00600
C521        C  0.67448964  0.89073543  0.98346792    -0.12400
C522        C  0.62264604  0.88577708  0.97306218     0.01600
H523        H  0.55889084  0.95878725  0.06846953     0.14500
H524        H  0.70600812  0.87090013  0.95933675     0.14500
C525        C  0.61337785  0.85607603  0.92957560     0.36200
C526        C  0.65113120  0.97807564  0.09696910     0.36100
N527        N  0.60637175  0.83296776  0.89410786    -0.44100
N528        N  0.65634090  0.00422441  0.13072286    -0.44100
C529        C  0.45478538  0.91887893  0.77573815    -0.00600
C530        C  0.49369974  0.93790591  0.80283393    -0.12400
C531        C  0.49450944  0.93609567  0.85592497     0.01700
C532        C  0.45608650  0.91421031  0.88265479    -0.00600
C533        C  0.41539871  0.89828476  0.85500253    -0.12400
C534        C  0.41454241  0.90037009  0.80239330     0.01600
H535        H  0.52303463  0.95486501  0.78249273     0.14500
H536        H  0.38463393  0.88272621  0.87466759     0.14500
C537        C  0.37181399  0.88318243  0.77633909     0.36200
C538        C  0.53508156  0.95713178  0.88123905     0.36100
N539        N  0.33762273  0.86956660  0.75530237    -0.44100
N540        N  0.56752244  0.97512777  0.90054563    -0.44100
C541        C  0.87299114  0.46405764  0.78208677    -0.00600
C542        C  0.90387675  0.42655836  0.81294928    -0.12400
C543        C  0.90259105  0.43033233  0.86578352     0.01700
C544        C  0.86993270  0.47188752  0.88921676    -0.00600
C545        C  0.83532216  0.50649100  0.85935581    -0.12400
C546        C  0.83658644  0.50318348  0.80649572     0.01600
H547        H  0.93113521  0.39500250  0.79597676     0.14500
H548        H  0.80957106  0.53846469  0.87748247     0.14500
C549        C  0.80185217  0.54222877  0.77910015     0.36200
C550        C  0.93782028  0.39337708  0.89523808     0.36100
N551        N  0.77361344  0.57408690  0.75812110    -0.44100
N552        N  0.96568596  0.36411603  0.91950714    -0.44100
C553        C  0.76437327  0.49312556  0.01638844    -0.00600
C554        C  0.72564142  0.52818150  0.99139265    -0.12400
C555        C  0.67201379  0.52408507  0.99339453     0.01700
C556        C  0.65579063  0.48422514  0.02123409    -0.00600
C557        C  0.69478208  0.44871438  0.04576402    -0.12400
C558        C  0.74862275  0.45257260  0.04321363     0.01600
H559        H  0.73739912  0.55916995  0.97010112     0.14500
H560        H  0.68315151  0.41777411  0.06720888     0.14500
C561        C  0.78627820  0.41552762  0.07008277     0.36200
C562        C  0.63460655  0.56276854  0.96818879     0.36100
N563        N  0.81563821  0.38541400  0.09203555    -0.44100
N564        N  0.60507241  0.59400160  0.94775540    -0.44100
C565        C  0.90448048  0.60367144  0.01352594    -0.00600
C566        C  0.92875875  0.62837211  0.97501051    -0.12400
C567        C  0.93269309  0.67962888  0.97909427     0.01700
C568        C  0.91487062  0.70633222  0.02327428    -0.00600
C569        C  0.89728458  0.68076724  0.06427335    -0.12400
C570        C  0.89258363  0.62960367  0.06009825     0.01600
H571        H  0.94579228  0.60834285  0.94167263     0.14500
H572        H  0.88644430  0.70114430  0.09941066     0.14500
C573        C  0.87530412  0.60524936  0.10426088     0.36200
C574        C  0.95698827  0.70351335  0.93837635     0.36100
N575        N  0.86148012  0.58651258  0.14013685    -0.44100
N576        N  0.97674774  0.72259619  0.90596363    -0.44100
C577        C  0.56031024  0.48220238  0.59750595    -0.00600
C578        C  0.58638842  0.44498319  0.56432731    -0.12400
C579        C  0.64189980  0.43361435  0.56167242     0.01700
C580        C  0.67280692  0.46187465  0.59116060    -0.00600
C581        C  0.64602996  0.50005880  0.62360184    -0.12400
C582        C  0.59058774  0.50976734  0.62761569     0.01600
H583        H  0.56321881  0.42322084  0.54180872     0.14500
H584        H  0.66846424  0.52199841  0.64664883     0.14500
C585        C  0.56571142  0.54851759  0.66282351     0.36200
C586        C  0.66493122  0.39184421  0.52894498     0.36100
N587        N  0.54562720  0.57934728  0.69116268    -0.44100
N588        N  0.68201185  0.35758445  0.50309482    -0.44100
C589        C  0.39979624  0.50000992  0.70495461    -0.00600
C590        C  0.41149507  0.54101828  0.73450715    -0.12400
C591        C  0.40675099  0.54194706  0.78686978     0.01700
C592        C  0.39103288  0.50074295  0.81187818    -0.00600
C593        C  0.37777973  0.46038839  0.78347581    -0.12400
C594        C  0.38321373  0.45885462  0.73077713     0.01600
H595        H  0.42759989  0.57172639  0.71697770     0.14500
H596        H  0.36669465  0.42795006  0.80290474     0.14500
C597        C  0.37682385  0.41205117  0.70624313     0.36200
C598        C  0.41871034  0.58549669  0.81408916     0.36100
N599        N  0.37187075  0.37382674  0.68768155    -0.44100
N600        N  0.42798913  0.62039572  0.83601519    -0.44100
C601        C  0.43371314  0.60887707  0.56329636    -0.00600
C602        C  0.48197688  0.62601752  0.56946509    -0.12400
C603        C  0.48412005  0.67870996  0.57121242     0.01700
C604        C  0.43706787  0.71569172  0.56620914    -0.00600
C605        C  0.38961085  0.69758454  0.55640634    -0.12400
C606        C  0.38765028  0.64542767  0.55501216     0.01600
H607        H  0.51767193  0.59822831  0.57605754     0.14500
H608        H  0.35271337  0.72423506  0.55129769     0.14500
C609        C  0.33697746  0.63035241  0.54753691     0.36200
C610        C  0.53500121  0.69290355  0.57909959     0.36100
N611        N  0.29620792  0.61861652  0.54171846    -0.44100
N612        N  0.57642415  0.70304586  0.58534629    -0.44100
C613        C  0.88970841  0.78489173  0.58005025    -0.00600
C614        C  0.91758614  0.75785503  0.53997552    -0.12400
C615        C  0.91966842  0.70483009  0.53437040     0.01700
C616        C  0.89309875  0.67735696  0.56949917    -0.00600
C617        C  0.86146406  0.70550642  0.60682451    -0.12400
C618        C  0.86002108  0.75820830  0.61279073     0.01600
H619        H  0.94042027  0.77764069  0.51461413     0.14500
H620        H  0.84029177  0.68571222  0.63370234     0.14500
C621        C  0.83025512  0.78240128  0.65539930     0.36200
C622        C  0.94996888  0.68034646  0.49211756     0.36100
N623        N  0.80615499  0.79896105  0.69063378    -0.44100
N624        N  0.97441970  0.66243603  0.45755791    -0.44100
C625        C  0.95062231  0.88437923  0.82155621    -0.00600
C626        C  0.97504817  0.91785190  0.79214557    -0.12400
C627        C  0.96740399  0.92246377  0.73963461     0.01700
C628        C  0.93340066  0.89366413  0.71535692    -0.00600
C629        C  0.91100511  0.85902007  0.74552735    -0.12400
C630        C  0.92062677  0.85280696  0.79683886     0.01600
H631        H  0.99861044  0.94228924  0.81056617     0.14500
H632        H  0.88523399  0.83596545  0.72862600     0.14500
C633        C  0.89999033  0.81255868  0.82243359     0.36200
C634        C  0.99355152  0.95867030  0.71387605     0.36100
N635        N  0.88375661  0.77954042  0.84181840    -0.44100
N636        N  0.01552074  0.98807617  0.69481518    -0.44100
C637        C  0.77467249  0.92011351  0.60394809    -0.00600
C638        C  0.74268556  0.90464004  0.64239115    -0.12400
C639        C  0.68780104  0.90845536  0.63702983     0.01700
C640        C  0.66292596  0.92964458  0.59287377    -0.00600
C641        C  0.69431802  0.94702194  0.55513478    -0.12400
C642        C  0.74945331  0.94240797  0.56014992     0.01600
H643        H  0.76043124  0.88947792  0.67720487     0.14500
H644        H  0.67562185  0.96440424  0.52134072     0.14500
C645        C  0.77795687  0.96410255  0.52107721     0.36200
C646        C  0.65778628  0.89252630  0.67850448     0.36100
N647        N  0.79939355  0.98237203  0.48927410    -0.44100
N648        N  0.63388395  0.87990683  0.71194144    -0.44100
loop_ 
_geom_bond_atom_site_label_1 
_geom_bond_atom_site_label_2 
_geom_bond_distance 
_geom_bond_site_symmetry_2 
_ccdc_geom_bond_type 
C1            C2   1.549       .  S
C1            C7   1.534       .  S
C1            C5   1.543       .  S
C1          C628   1.548       .  S
C2            H9   1.074       .  S
C2            C3   1.376       .  D
C3            C4   1.578       .  S
C3           C54   1.523       .  S
C4            C8   1.550       .  S
C4            C6   1.541       .  S
C4           H10   1.106       .  S
C5           H11   1.086       .  S
C5            C6   1.366       .  D
C6          C637   1.504       .  S
C7           H12   1.088       .  S
C7            C8   1.352       .  D
C8          C613   1.500       .  S
C13          C14   1.548       .  S
C13          C19   1.534       .  S
C13          C17   1.530       .  S
C13         C589   1.537       .  S
C14          H21   1.078       .  S
C14          C15   1.377       .  D
C15          C16   1.575       .  S
C15          C90   1.521       .  S
C16          C20   1.548       .  S
C16          C18   1.537       .  S
C16          H22   1.107       .  S
C17          H23   1.087       .  S
C17          C18   1.354       .  D
C18         C577   1.484       .  S
C19          H24   1.087       .  S
C19          C20   1.357       .  D
C20         C601   1.493       .  S
C25          C26   1.539       .  S
C25          C31   1.534   1_554  S
C25          C29   1.527       .  S
C25         C565   1.523       .  S
C26          H33   1.086       .  S
C26          C27   1.366       .  D
C27          C28   1.541   1_554  S
C27         C553   1.490       .  S
C28          C32   1.544       .  S
C28          C30   1.572   1_556  S
C28          H34   1.106       .  S
C29          H35   1.083       .  S
C29          C30   1.364       .  D
C30          C63   1.506       .  S
C31          H36   1.082       .  S
C31          C32   1.353       .  D
C32         C544   1.489       .  S
C37          C38   1.528       .  S
C37          C43   1.521   1_554  S
C37          C41   1.542       .  S
C37         C505   1.524       .  S
C38          H45   1.085       .  S
C38          C39   1.360       .  D
C39          C40   1.540   1_554  S
C39         C517   1.470       .  S
C40          C44   1.551       .  S
C40          C42   1.564   1_556  S
C40          H46   1.105       .  S
C41          H47   1.080       .  S
C41          C42   1.368       .  D
C42          C75   1.506       .  S
C43          H48   1.087       .  S
C43          C44   1.359       .  D
C44         C532   1.500       .  S
C49          C50   1.533       .  S
C49          C55   1.536   1_565  S
C49          C53   1.525       .  S
C49         C493   1.534       .  S
C50          H57   1.085   1_655  S
C50          C51   1.360   1_655  D
C51          C52   1.548   1_455  S
C51         C481   1.486       .  S
C52          C56   1.558   1_565  S
C52          C54   1.582       .  S
C52          H58   1.107   1_565  S
C53          H59   1.083       .  S
C53          C54   1.368       .  D
C55          H60   1.085       .  S
C55          C56   1.365       .  D
C56         C469   1.517       .  S
C61          C62   1.539       .  S
C61          C67   1.525       .  S
C61          C65   1.532   1_655  S
C61         C457   1.518       .  S
C62          H69   1.072       .  S
C62          C63   1.363       .  D
C63          C64   1.568       .  S
C64          C68   1.544       .  S
C64          C66   1.547   1_655  S
C64          H70   1.107       .  S
C65          H71   1.086       .  S
C65          C66   1.362       .  D
C66         C445   1.489       .  S
C67          H72   1.087       .  S
C67          C68   1.351       .  D
C68         C436   1.480       .  S
C73          C74   1.533       .  S
C73          C79   1.526       .  S
C73          C77   1.543       .  S
C73         C397   1.529       .  S
C74          H81   1.082       .  S
C74          C75   1.370   1_545  D
C75          C76   1.566       .  S
C76          C80   1.547       .  S
C76          C78   1.537   1_565  S
C76          H82   1.107       .  S
C77          H83   1.079       .  S
C77          C78   1.360       .  D
C78         C421   1.482   1_545  S
C79          H84   1.088       .  S
C79          C80   1.355   1_545  D
C80         C409   1.486       .  S
C85          C86   1.546       .  S
C85          C91   1.528       .  S
C85          C89   1.529       .  S
C85         C373   1.537       .  S
C86          H93   1.083       .  S
C86          C87   1.360       .  D
C87          C88   1.538       .  S
C87         C364   1.490       .  S
C88          C92   1.554       .  S
C88          C90   1.578       .  S
C88          H94   1.108       .  S
C89          H95   1.082       .  S
C89          C90   1.372       .  D
C91          H96   1.087       .  S
C91          C92   1.359       .  D
C92         C385   1.495       .  S
Zr97         O98   2.439       .  S
Zr97         O99   2.428       .  S
Zr97        O100   2.454       .  S
Zr97        O103   2.448   1_556  S
Zr97        O105   2.382   1_556  S
Zr97        O106   2.388   1_556  S
Zr97        O107   2.402       .  S
Zr97        O108   2.385   1_556  S
O98         H154   0.988       .  S
O98         H162   0.990       .  S
O99         C119   1.282   1_556  A
O100        C121   1.289       .  A
O101       Zr111   2.415       .  S
O101        C120   1.281       .  A
O102       Zr110   2.429   1_655  S
O102        C121   1.284       .  A
O103        C120   1.289       .  A
O104       Zr112   2.373       .  S
O104        C119   1.272       .  A
O105       Zr110   2.395   1_654  S
O105       Zr112   2.383       .  S
O106       Zr111   2.395       .  S
O106       Zr112   2.387       .  S
O106        H141   0.966       .  S
O107       Zr110   2.402   1_655  S
O107       Zr127   2.372   1_566  S
O107        H144   0.965       .  S
O108       Zr111   2.378       .  S
O108       Zr127   2.363   1_565  S
Zr109       O134   2.441   1_665  S
Zr109       O128   2.423   1_565  S
Zr109       O136   2.449       .  S
Zr109       O124   2.453   1_655  S
Zr109       O115   2.380       .  S
Zr109       O116   2.404   1_655  S
Zr109       O117   2.381   1_565  S
Zr109       O118   2.390   1_565  S
Zr110       O129   2.436       .  S
Zr110       O122   2.434       .  S
Zr110       O123   2.421   1_556  S
Zr110       O116   2.403   1_556  S
Zr110       O117   2.387   1_466  S
Zr111       O113   2.435   1_565  S
Zr111       O135   2.440       .  S
Zr111       O137   2.410       .  S
Zr111       O115   2.381       .  S
Zr111       O118   2.389   1_565  S
Zr112       O138   2.435       .  S
Zr112       O139   2.436   1_655  S
Zr112       O114   2.436   1_655  S
Zr112       O115   2.365       .  S
Zr112       O116   2.379   1_655  S
O113        H150   0.990       .  S
O114        H145   0.990       .  S
O114        H159   0.990       .  S
O116        H142   0.965       .  S
O117       Zr127   2.382       .  S
O118       Zr127   2.387       .  S
O118        H143   0.966       .  S
C119        C568   1.448       .  S
C120        C520   1.488       .  S
C121        C625   1.490       .  S
O122        H158   0.990       .  S
O123        C125   1.283       .  A
O124        C125   1.287       .  A
C125        C424   1.487       .  S
O126       Zr127   2.439   1_556  S
O126        H155   0.990       .  S
Zr127       O130   2.437   1_554  S
Zr127       O131   2.440       .  S
Zr127       O132   2.366       .  S
O128        C133   1.282       .  A
O129        H146   0.990       .  S
O129        H161   0.990   1_565  S
O130        H147   0.990       .  S
O131        H151   0.990       .  S
O131        H160   0.990       .  S
O132        C133   1.270       .  A
C133        C460   1.466       .  S
O134        H153   0.990       .  S
O134        H157   0.989       .  S
O135        H149   0.990       .  S
O135        H156   0.990       .  S
O136        C140   1.288       .  A
O137        C140   1.279       .  A
O138        H148   0.990       .  S
O139        H152   0.990       .  S
C140        C496   1.464       .  S
Zr163       O164   2.439   1_655  S
Zr163       O165   2.488       .  S
Zr163       O166   2.513       .  S
Zr163       O169   2.487   1_655  S
Zr163       O171   2.390       .  S
Zr163       O172   2.398       .  S
Zr163       O173   2.419       .  S
Zr163       O174   2.411   1_655  S
O164        H220   0.990       .  S
O164        H228   0.990       .  S
O165        C185   1.294       .  A
O166        C187   1.299       .  A
O167       Zr177   2.401   1_455  S
O167        C186   1.280       .  A
O168       Zr176   2.407       .  S
O168        C187   1.279       .  A
O169        C186   1.294       .  A
O170       Zr178   2.383       .  S
O170        C185   1.276       .  A
O171       Zr176   2.393       .  S
O171       Zr178   2.386       .  S
O172       Zr177   2.394       .  S
O172       Zr178   2.380       .  S
O172        H207   0.965       .  S
O173       Zr176   2.400       .  S
O173       Zr193   2.377       .  S
O173        H210   0.963       .  S
O174       Zr177   2.385   1_455  S
O174       Zr193   2.382   1_455  S
Zr175       O200   2.438       .  S
Zr175       O194   2.494       .  S
Zr175       O202   2.507       .  S
Zr175       O190   2.486       .  S
Zr175       O181   2.397       .  S
Zr175       O182   2.422       .  S
Zr175       O183   2.385       .  S
Zr175       O184   2.395       .  S
Zr176       O195   2.437       .  S
Zr176       O188   2.435       .  S
Zr176       O189   2.411       .  S
Zr176       O182   2.396       .  S
Zr176       O183   2.395       .  S
Zr177       O179   2.436   1_655  S
Zr177       O201   2.437   1_655  S
Zr177       O203   2.415       .  S
Zr177       O181   2.374       .  S
Zr177       O184   2.397       .  S
Zr178       O204   2.435       .  S
Zr178       O205   2.437       .  S
Zr178       O180   2.438       .  S
Zr178       O181   2.373       .  S
Zr178       O182   2.380       .  S
O179        H216   0.990       .  S
O180        H211   0.990       .  S
O180        H225   0.990       .  S
O182        H208   0.965       .  S
O183       Zr193   2.383       .  S
O184       Zr193   2.386       .  S
O184        H209   0.966       .  S
C185        C433   1.499       .  S
C186        C361   1.491       .  S
C187        C472   1.499       .  S
O188        H224   0.990       .  S
O189        C191   1.280       .  A
O190        C191   1.295       .  A
C191        C580   1.498       .  S
O192       Zr193   2.440   1_455  S
O192        H221   0.990       .  S
Zr193       O196   2.438       .  S
Zr193       O197   2.439   1_655  S
Zr193       O198   2.390       .  S
O194        C199   1.295       .  A
O195        H212   0.990       .  S
O195        H227   0.990       .  S
O196        H213   0.990       .  S
O197        H217   0.990       .  S
O197        H226   0.990       .  S
O198        C199   1.277       .  A
C199        C541   1.509       .  S
O200        H219   0.991       .  S
O200        H223   0.989       .  S
O201        H215   0.990       .  S
O201        H222   0.989       .  S
O202        C206   1.300       .  A
O203        C206   1.281       .  A
O204        H214   0.990       .  S
O205        H218   0.990       .  S
C206        C616   1.505       .  S
Zr229       O230   2.442       .  S
Zr229       O231   2.436       .  S
Zr229       O232   2.457       .  S
Zr229       O235   2.455       .  S
Zr229       O237   2.383       .  S
Zr229       O238   2.384   1_556  S
Zr229       O239   2.406       .  S
Zr229       O240   2.398   1_556  S
O230        H286   0.990       .  S
O230        H294   0.990       .  S
O231        C251   1.285   1_556  A
O232        C253   1.289       .  A
O233       Zr243   2.423       .  S
O233        C252   1.283       .  A
O234       Zr242   2.403       .  S
O234        C253   1.278       .  A
O235        C252   1.289   1_556  A
O236       Zr244   2.378       .  S
O236        C251   1.273       .  A
O237       Zr242   2.398       .  S
O237       Zr244   2.376   1_556  S
O238       Zr243   2.395       .  S
O238       Zr244   2.387       .  S
O238        H273   0.966       .  S
O239       Zr242   2.408       .  S
O239       Zr259   2.381       .  S
O239        H276   0.965       .  S
O240       Zr243   2.389       .  S
O240       Zr259   2.383   1_554  S
Zr241       O266   2.441       .  S
Zr241       O260   2.422       .  S
Zr241       O268   2.440       .  S
Zr241       O256   2.449       .  S
Zr241       O247   2.386       .  S
Zr241       O248   2.400       .  S
Zr241       O249   2.373       .  S
Zr241       O250   2.388       .  S
Zr242       O261   2.435       .  S
Zr242       O254   2.435       .  S
Zr242       O255   2.424   1_556  S
Zr242       O248   2.397   1_556  S
Zr242       O249   2.387   1_556  S
Zr243       O245   2.435       .  S
Zr243       O267   2.439       .  S
Zr243       O269   2.425       .  S
Zr243       O247   2.391       .  S
Zr243       O250   2.393       .  S
Zr244       O270   2.435       .  S
Zr244       O271   2.434       .  S
Zr244       O246   2.439       .  S
Zr244       O247   2.378       .  S
Zr244       O248   2.376       .  S
O245        H282   0.990       .  S
O246        H277   0.989       .  S
O246        H291   0.990       .  S
O248        H274   0.965       .  S
O249       Zr259   2.382   1_554  S
O250       Zr259   2.387   1_554  S
O250        H275   0.967       .  S
C251        C508   1.472       .  S
C252        C556   1.491       .  S
C253        C592   1.474       .  S
O254        H290   0.990       .  S
O255        C257   1.282       .  A
O256        C257   1.287       .  A
C257        C448   1.484       .  S
O258       Zr259   2.440       .  S
O258        H287   0.990       .  S
Zr259       O262   2.440       .  S
Zr259       O263   2.437   1_556  S
Zr259       O264   2.390   1_556  S
O260        C265   1.281       .  A
O261        H278   0.990       .  S
O261        H293   0.990       .  S
O262        H279   0.990       .  S
O263        H283   0.990       .  S
O263        H292   0.990       .  S
O264        C265   1.275       .  A
C265        C400   1.453       .  S
O266        H285   0.991       .  S
O266        H289   0.990       .  S
O267        H281   0.990       .  S
O267        H288   0.990       .  S
O268        C272   1.287       .  A
O269        C272   1.282       .  A
O270        H280   0.990       .  S
O271        H284   0.990       .  S
C272        C376   1.476       .  S
Zr295       O296   2.438       .  S
Zr295       O297   2.477       .  S
Zr295       O298   2.477       .  S
Zr295       O301   2.504       .  S
Zr295       O303   2.390       .  S
Zr295       O304   2.391       .  S
Zr295       O305   2.422       .  S
Zr295       O306   2.398       .  S
O296        H352   0.990       .  S
O296        H360   0.990       .  S
O297        C317   1.290       .  A
O298        C319   1.292       .  A
O299       Zr309   2.400       .  S
O299        C318   1.280       .  A
O300       Zr308   2.418   1_565  S
O300        C319   1.282       .  A
O301        C318   1.297       .  A
O302       Zr310   2.389       .  S
O302        C317   1.274       .  A
O303       Zr308   2.403   1_565  S
O303       Zr310   2.383       .  S
O304       Zr309   2.395       .  S
O304       Zr310   2.380       .  S
O304        H339   0.965       .  S
O305       Zr308   2.401   1_565  S
O305       Zr325   2.389       .  S
O305        H342   0.965       .  S
O306       Zr309   2.376       .  S
O306       Zr325   2.382       .  S
Zr307       O332   2.440       .  S
Zr307       O326   2.488       .  S
Zr307       O334   2.484       .  S
Zr307       O322   2.492       .  S
Zr307       O313   2.406   1_545  S
Zr307       O314   2.417       .  S
Zr307       O315   2.391   1_545  S
Zr307       O316   2.390   1_545  S
Zr308       O327   2.436       .  S
Zr308       O320   2.430       .  S
Zr308       O321   2.436       .  S
Zr308       O314   2.399       .  S
Zr308       O315   2.393   1_545  S
Zr309       O311   2.437       .  S
Zr309       O333   2.438       .  S
Zr309       O335   2.403       .  S
Zr309       O313   2.385       .  S
Zr309       O316   2.390       .  S
Zr310       O336   2.436       .  S
Zr310       O337   2.436   1_565  S
Zr310       O312   2.438   1_565  S
Zr310       O313   2.382       .  S
Zr310       O314   2.364   1_565  S
O311        H348   0.990       .  S
O312        H343   0.990       .  S
O312        H357   0.990       .  S
O314        H340   0.962       .  S
O315       Zr325   2.385       .  S
O316       Zr325   2.385       .  S
O316        H341   0.965       .  S
C317        C529   1.476       .  S
C318        C604   1.510       .  S
C319        C640   1.490       .  S
O320        H356   0.990       .  S
O321        C323   1.286       .  A
O322        C323   1.297       .  A
C323        C388   1.501       .  S
O324       Zr325   2.439       .  S
O324        H353   0.990       .  S
Zr325       O328   2.437       .  S
Zr325       O329   2.440       .  S
Zr325       O330   2.399       .  S
O326        C331   1.294   1_545  A
O327        H344   0.990       .  S
O327        H359   0.990       .  S
O328        H345   0.990       .  S
O329        H349   0.990       .  S
O329        H358   0.990       .  S
O330        C331   1.278       .  A
C331        C412   1.507       .  S
O332        H351   0.989       .  S
O332        H355   0.990       .  S
O333        H347   0.990       .  S
O333        H354   0.990       .  S
O334        C338   1.294   1_545  A
O335        C338   1.280       .  A
O336        H346   0.990       .  S
O337        H350   0.990       .  S
C338        C484   1.488       .  S
C361        C362   1.408       .  A
C361        C366   1.415       .  A
C362        C363   1.396       .  A
C362        H367   1.085       .  S
C363        C364   1.410       .  A
C363        C370   1.445       .  S
C364        C365   1.406       .  A
C365        C366   1.410       .  A
C365        H368   1.084       .  S
C366        C369   1.442       .  S
C369        N371   1.157       .  T
C370        N372   1.157       .  T
C373        C374   1.406       .  A
C373        C378   1.422       .  A
C374        C375   1.390       .  A
C374        H379   1.081       .  S
C375        C376   1.409       .  A
C375        C382   1.443       .  S
C376        C377   1.403       .  A
C377        C378   1.406       .  A
C377        H380   1.085       .  S
C378        C381   1.444       .  S
C381        N383   1.157       .  T
C382        N384   1.156       .  T
C385        C386   1.396       .  A
C385        C390   1.419       .  A
C386        C387   1.407       .  A
C386        H391   1.085       .  S
C387        C388   1.425       .  A
C387        C394   1.442       .  S
C388        C389   1.404       .  A
C389        C390   1.404       .  A
C389        H392   1.085       .  S
C390        C393   1.445       .  S
C393        N395   1.157       .  T
C394        N396   1.157       .  T
C397        C398   1.411       .  A
C397        C402   1.425       .  A
C398        C399   1.389       .  A
C398        H403   1.074       .  S
C399        C400   1.402       .  A
C399        C406   1.448       .  S
C400        C401   1.395       .  A
C401        C402   1.398       .  A
C401        H404   1.085       .  S
C402        C405   1.445       .  S
C405        N407   1.157       .  T
C406        N408   1.157       .  T
C409        C410   1.405   1_565  A
C409        C414   1.402       .  A
C410        C411   1.404       .  A
C410        H415   1.085       .  S
C411        C412   1.417   1_545  A
C411        C418   1.441       .  S
C412        C413   1.419       .  A
C413        C414   1.404       .  A
C413        H416   1.084       .  S
C414        C417   1.444       .  S
C417        N419   1.157       .  T
C418        N420   1.157       .  T
C421        C422   1.404   1_565  A
C421        C426   1.406       .  A
C422        C423   1.396       .  A
C422        H427   1.085       .  S
C423        C424   1.414   1_545  A
C423        C430   1.443       .  S
C424        C425   1.411       .  A
C425        C426   1.403       .  A
C425        H428   1.085       .  S
C426        C429   1.444       .  S
C429        N431   1.157   1_554  T
C430        N432   1.157       .  T
C433        C434   1.415       .  A
C433        C438   1.415   1_655  A
C434        C435   1.399       .  A
C434        H439   1.084       .  S
C435        C436   1.402       .  A
C435        C442   1.444       .  S
C436        C437   1.407   1_655  A
C437        C438   1.408       .  A
C437        H440   1.085       .  S
C438        C441   1.443       .  S
C441        N443   1.157       .  T
C442        N444   1.157       .  T
C445        C446   1.402       .  A
C445        C450   1.417       .  A
C446        C447   1.404       .  A
C446        H451   1.085       .  S
C447        C448   1.416       .  A
C447        C454   1.443       .  S
C448        C449   1.400       .  A
C449        C450   1.397       .  A
C449        H452   1.086       .  S
C450        C453   1.441       .  S
C453        N455   1.156       .  T
C454        N456   1.157   1_554  T
C457        C458   1.406       .  A
C457        C462   1.423       .  A
C458        C459   1.389       .  A
C458        H463   1.075       .  S
C459        C460   1.414       .  A
C459        C466   1.447       .  S
C460        C461   1.396       .  A
C461        C462   1.386       .  A
C461        H464   1.085       .  S
C462        C465   1.445   1_655  S
C465        N467   1.157       .  T
C466        N468   1.158   1_554  T
C469        C470   1.409       .  A
C469        C474   1.420       .  A
C470        C471   1.402       .  A
C470        H475   1.085       .  S
C471        C472   1.417       .  A
C471        C478   1.445       .  S
C472        C473   1.406       .  A
C473        C474   1.414       .  A
C473        H476   1.085   1_655  S
C474        C477   1.439   1_655  S
C477        N479   1.157       .  T
C478        N480   1.157       .  T
C481        C482   1.396       .  A
C481        C486   1.418   1_565  A
C482        C483   1.401       .  A
C482        H487   1.085       .  S
C483        C484   1.421       .  A
C483        C490   1.443       .  S
C484        C485   1.402   1_565  A
C485        C486   1.401       .  A
C485        H488   1.085       .  S
C486        C489   1.445       .  S
C489        N491   1.157       .  T
C490        N492   1.157       .  T
C493        C494   1.413       .  A
C493        C498   1.417       .  A
C494        C495   1.397       .  A
C494        H499   1.083   1_565  S
C495        C496   1.405       .  A
C495        C502   1.445   1_565  S
C496        C497   1.400       .  A
C497        C498   1.398       .  A
C497        H500   1.085       .  S
C498        C501   1.444       .  S
C501        N503   1.157   1_655  T
C502        N504   1.157       .  T
C505        C506   1.409       .  A
C505        C510   1.425   1_554  A
C506        C507   1.393       .  A
C506        H511   1.081       .  S
C507        C508   1.412       .  A
C507        C514   1.445       .  S
C508        C509   1.395   1_554  A
C509        C510   1.392       .  A
C509        H512   1.084       .  S
C510        C513   1.442       .  S
C513        N515   1.157       .  T
C514        N516   1.157       .  T
C517        C518   1.397       .  A
C517        C522   1.407   1_554  A
C518        C519   1.402       .  A
C518        H523   1.085       .  S
C519        C520   1.423       .  A
C519        C526   1.444       .  S
C520        C521   1.406   1_554  A
C521        C522   1.391       .  A
C521        H524   1.084       .  S
C522        C525   1.444       .  S
C525        N527   1.157       .  T
C526        N528   1.157   1_565  T
C529        C530   1.404       .  A
C529        C534   1.407       .  A
C530        C531   1.410       .  A
C530        H535   1.085       .  S
C531        C532   1.417       .  A
C531        C538   1.441       .  S
C532        C533   1.409       .  A
C533        C534   1.397       .  A
C533        H536   1.085       .  S
C534        C537   1.445       .  S
C537        N539   1.157       .  T
C538        N540   1.157       .  T
C541        C542   1.421       .  A
C541        C546   1.416       .  A
C542        C543   1.405       .  A
C542        H547   1.084       .  S
C543        C544   1.400       .  A
C543        C550   1.445       .  S
C544        C545   1.408       .  A
C545        C546   1.405       .  A
C545        H548   1.085       .  S
C546        C549   1.442       .  S
C549        N551   1.157       .  T
C550        N552   1.157       .  T
C553        C554   1.405   1_554  A
C553        C558   1.410       .  A
C554        C555   1.401       .  A
C554        H559   1.085       .  S
C555        C556   1.414   1_556  A
C555        C562   1.443       .  S
C556        C557   1.410       .  A
C557        C558   1.405       .  A
C557        H560   1.085       .  S
C558        C561   1.443       .  S
C561        N563   1.157       .  T
C562        N564   1.157       .  T
C565        C566   1.414   1_554  A
C565        C570   1.417       .  A
C566        C567   1.390       .  A
C566        H571   1.078       .  S
C567        C568   1.398   1_556  A
C567        C574   1.446       .  S
C568        C569   1.397       .  A
C569        C570   1.392       .  A
C569        H572   1.086       .  S
C570        C573   1.443       .  S
C573        N575   1.157       .  T
C574        N576   1.157       .  T
C577        C578   1.395       .  A
C577        C582   1.414       .  A
C578        C579   1.402       .  A
C578        H583   1.086       .  S
C579        C580   1.427       .  A
C579        C586   1.444       .  S
C580        C581   1.405       .  A
C581        C582   1.402       .  A
C581        H584   1.084       .  S
C582        C585   1.445       .  S
C585        N587   1.157       .  T
C586        N588   1.157       .  T
C589        C590   1.421       .  A
C589        C594   1.419       .  A
C590        C591   1.393       .  A
C590        H595   1.083       .  S
C591        C592   1.400       .  A
C591        C598   1.446       .  S
C592        C593   1.405       .  A
C593        C594   1.403       .  A
C593        H596   1.085       .  S
C594        C597   1.441       .  S
C597        N599   1.158       .  T
C598        N600   1.157       .  T
C601        C602   1.407       .  A
C601        C606   1.406       .  A
C602        C603   1.413       .  A
C602        H607   1.083       .  S
C603        C604   1.419       .  A
C603        C610   1.441       .  S
C604        C605   1.416       .  A
C605        C606   1.398       .  A
C605        H608   1.084       .  S
C606        C609   1.445       .  S
C609        N611   1.157       .  T
C610        N612   1.157       .  T
C613        C614   1.398       .  A
C613        C618   1.422       .  A
C614        C615   1.409       .  A
C614        H619   1.085       .  S
C615        C616   1.427       .  A
C615        C622   1.442       .  S
C616        C617   1.400       .  A
C617        C618   1.404       .  A
C617        H620   1.085       .  S
C618        C621   1.441       .  S
C621        N623   1.156       .  T
C622        N624   1.157       .  T
C625        C626   1.410       .  A
C625        C630   1.405       .  A
C626        C627   1.411       .  A
C626        H631   1.085       .  S
C627        C628   1.421       .  A
C627        C634   1.439       .  S
C628        C629   1.416       .  A
C629        C630   1.391       .  A
C629        H632   1.081       .  S
C630        C633   1.445       .  S
C633        N635   1.157       .  T
C634        N636   1.158   1_655  T
C637        C638   1.410       .  A
C637        C642   1.414       .  A
C638        C639   1.402       .  A
C638        H643   1.080       .  S
C639        C640   1.409       .  A
C639        C646   1.444       .  S
C640        C641   1.408       .  A
C641        C642   1.405       .  A
C641        H644   1.085       .  S
C642        C645   1.442       .  S
C645        N647   1.157       .  T
C646        N648   1.157       .  T
